=
 OpenBabel07192307433D

 49 52  0  0  0  0  0  0  0  0999 V2000
    3.9770    3.6310   17.8480 N   0  0  0  0  0  0  0  0  0  0  0  0
    3.4630    2.8620   19.0440 C   0  0  0  0  0  0  0  0  0  0  0  0
    1.9820    3.1500   19.3300 C   0  0  0  0  0  0  0  0  0  0  0  0
    1.7340    4.5900   19.3310 N   0  0  0  0  0  0  0  0  0  0  0  0
    1.7800    5.2530   20.5670 C   0  0  0  0  0  0  0  0  0  0  0  0
    2.0520    4.6320   21.5970 O   0  0  0  0  0  0  0  0  0  0  0  0
    2.0790    5.2700   18.0720 C   0  0  0  0  0  0  0  0  0  0  0  0
    2.8970    4.3740   17.1210 C   0  0  0  0  0  0  0  0  0  0  0  0
    4.0420    3.1100   19.9380 H   0  0  0  0  0  0  0  0  0  0  0  0
    3.6060    1.7950   18.8490 H   0  0  0  0  0  0  0  0  0  0  0  0
    1.6870    2.6960   20.2820 H   0  0  0  0  0  0  0  0  0  0  0  0
    1.3430    2.7050   18.5590 H   0  0  0  0  0  0  0  0  0  0  0  0
    1.1440    5.5530   17.5770 H   0  0  0  0  0  0  0  0  0  0  0  0
    2.6450    6.1820   18.2860 H   0  0  0  0  0  0  0  0  0  0  0  0
    3.3090    4.9640   16.2960 H   0  0  0  0  0  0  0  0  0  0  0  0
    2.2450    3.6280   16.6480 H   0  0  0  0  0  0  0  0  0  0  0  0
    1.5130    6.6820   20.6100 C   0  0  0  0  0  0  0  0  0  0  0  0
    0.7590    7.3610   21.5720 C   0  0  0  0  0  0  0  0  0  0  0  0
    0.6790    8.6990   21.2100 C   0  0  0  0  0  0  0  0  0  0  0  0
    0.1070    9.8530   21.7200 C   0  0  0  0  0  0  0  0  0  0  0  0
    0.3710   10.8830   20.8840 N   0  0  0  0  0  0  0  0  0  0  0  0
    1.1300   10.3380   19.8230 O   0  0  0  0  0  0  0  0  0  0  0  0
    1.2870    9.0220   20.0660 C   0  0  0  0  0  0  0  0  0  0  0  0
    2.0130    7.7370   19.3030 S   0  0  0  0  0  0  0  0  0  0  0  0
    0.3290    6.8840   22.4440 H   0  0  0  0  0  0  0  0  0  0  0  0
   -0.6900   10.0670   22.9460 C   0  0  0  0  0  0  0  0  0  0  0  0
   -0.3370   10.9560   23.4780 H   0  0  0  0  0  0  0  0  0  0  0  0
   -0.6090    9.2070   23.6190 H   0  0  0  0  0  0  0  0  0  0  0  0
   -1.7500   10.2110   22.7130 H   0  0  0  0  0  0  0  0  0  0  0  0
    5.3780    4.5750   18.1330 S   0  0  0  0  0  0  0  0  0  0  0  0
    6.2810    3.7640   18.9250 O   0  0  0  0  0  0  0  0  0  0  0  0
    4.9560    5.8750   18.6140 O   0  0  0  0  0  0  0  0  0  0  0  0
    6.0930    4.0280   14.1820 C   0  0  0  0  0  0  0  0  0  0  0  0
    7.0720    4.9850   13.9050 C   0  0  0  0  0  0  0  0  0  0  0  0
    7.5380    5.8370   14.9110 C   0  0  0  0  0  0  0  0  0  0  0  0
    7.0410    5.7560   16.2220 C   0  0  0  0  0  0  0  0  0  0  0  0
    6.0630    4.7810   16.4980 C   0  0  0  0  0  0  0  0  0  0  0  0
    5.6030    3.9190   15.4870 C   0  0  0  0  0  0  0  0  0  0  0  0
    7.4850    5.0720   12.9020 H   0  0  0  0  0  0  0  0  0  0  0  0
    8.3060    6.5660   14.6600 H   0  0  0  0  0  0  0  0  0  0  0  0
    4.8570    3.1580   15.7140 H   0  0  0  0  0  0  0  0  0  0  0  0
    5.6220    3.0930   13.1070 C   0  0  0  0  0  0  0  0  0  0  0  0
    6.3830    2.3350   12.8940 H   0  0  0  0  0  0  0  0  0  0  0  0
    4.6980    2.5950   13.4210 H   0  0  0  0  0  0  0  0  0  0  0  0
    5.4310    3.6310   12.1710 H   0  0  0  0  0  0  0  0  0  0  0  0
    7.6090    6.6820   17.2630 C   0  0  0  0  0  0  0  0  0  0  0  0
    8.6750    6.8480   17.0850 H   0  0  0  0  0  0  0  0  0  0  0  0
    7.1150    7.6600   17.2330 H   0  0  0  0  0  0  0  0  0  0  0  0
    7.4540    6.2900   18.2710 H   0  0  0  0  0  0  0  0  0  0  0  0
  1 30  1  0  0  0  0
  1  2  1  0  0  0  0
  2  3  1  0  0  0  0
  2  9  1  0  0  0  0
  3  4  1  0  0  0  0
  3 11  1  0  0  0  0
  4  5  1  0  0  0  0
  5 17  1  0  0  0  0
  5  6  2  0  0  0  0
  7 14  1  0  0  0  0
  7  4  1  0  0  0  0
  8  1  1  0  0  0  0
  8  7  1  0  0  0  0
 10  2  1  0  0  0  0
 12  3  1  0  0  0  0
 13  7  1  0  0  0  0
 15  8  1  0  0  0  0
 16  8  1  0  0  0  0
 17 18  2  0  0  0  0
 18 25  1  0  0  0  0
 19 18  1  0  0  0  0
 19 20  1  0  0  0  0
 20 26  1  0  0  0  0
 21 20  2  0  0  0  0
 22 23  1  0  0  0  0
 22 21  1  0  0  0  0
 23 19  2  0  0  0  0
 24 23  1  0  0  0  0
 24 17  1  0  0  0  0
 26 27  1  0  0  0  0
 26 28  1  0  0  0  0
 29 26  1  0  0  0  0
 30 32  2  0  0  0  0
 30 31  2  0  0  0  0
 33 38  1  0  0  0  0
 34 33  2  0  0  0  0
 34 35  1  0  0  0  0
 35 36  2  0  0  0  0
 36 37  1  0  0  0  0
 36 46  1  0  0  0  0
 37 30  1  0  0  0  0
 38 41  1  0  0  0  0
 38 37  2  0  0  0  0
 39 34  1  0  0  0  0
 40 35  1  0  0  0  0
 42 44  1  0  0  0  0
 42 33  1  0  0  0  0
 43 42  1  0  0  0  0
 45 42  1  0  0  0  0
 46 49  1  0  0  0  0
 47 46  1  0  0  0  0
 48 46  1  0  0  0  0
M  END
>  <MODEL>
1

>  <REMARK>
 VINA RESULT:    -7.235      0.000      0.000
 INTER + INTRA:          -7.001
 INTER:                  -8.091
 INTRA:                   1.090
 UNBOUND:                 2.138
  Name = 
  6 active torsions:
  status: ('A' for Active; 'I' for Inactive)
    1  A    between atoms: C_1  and  C_2
    2  A    between atoms: C_5  and  C_6
    3  A    between atoms: C_7  and  S_8
    4  A    between atoms: S_8  and  N_11
    5  A    between atoms: C_15  and  C_17
    6  A    between atoms: C_20  and  C_21
                            x       y       z     vdW  Elec       q    Type
                         _______ _______ _______ _____ _____    ______ ____

>  <TORSDO>
F 6

$$$$
=
 OpenBabel07192307433D

 49 52  0  0  0  0  0  0  0  0999 V2000
   -1.3760   12.2300   20.1480 N   0  0  0  0  0  0  0  0  0  0  0  0
   -0.4710   12.9280   19.1580 C   0  0  0  0  0  0  0  0  0  0  0  0
   -0.2150   12.0820   17.9030 C   0  0  0  0  0  0  0  0  0  0  0  0
    0.1620   10.7200   18.2750 N   0  0  0  0  0  0  0  0  0  0  0  0
    1.5320   10.4320   18.3690 C   0  0  0  0  0  0  0  0  0  0  0  0
    2.3690   11.3150   18.1720 O   0  0  0  0  0  0  0  0  0  0  0  0
   -0.8390   10.0090   19.0880 C   0  0  0  0  0  0  0  0  0  0  0  0
   -1.9420   10.9460   19.6190 C   0  0  0  0  0  0  0  0  0  0  0  0
    0.4930   13.1640   19.6190 H   0  0  0  0  0  0  0  0  0  0  0  0
   -0.9400   13.8770   18.8810 H   0  0  0  0  0  0  0  0  0  0  0  0
    0.5550   12.5510   17.2820 H   0  0  0  0  0  0  0  0  0  0  0  0
   -1.1190   12.0170   17.2870 H   0  0  0  0  0  0  0  0  0  0  0  0
   -1.2980    9.2410   18.4580 H   0  0  0  0  0  0  0  0  0  0  0  0
   -0.3470    9.5150   19.9320 H   0  0  0  0  0  0  0  0  0  0  0  0
   -2.5460   10.4370   20.3770 H   0  0  0  0  0  0  0  0  0  0  0  0
   -2.6420   11.2030   18.8130 H   0  0  0  0  0  0  0  0  0  0  0  0
    1.9450    9.0800   18.7120 C   0  0  0  0  0  0  0  0  0  0  0  0
    2.5600    8.1550   17.8620 C   0  0  0  0  0  0  0  0  0  0  0  0
    2.7190    6.9590   18.5490 C   0  0  0  0  0  0  0  0  0  0  0  0
    3.2430    5.7040   18.2880 C   0  0  0  0  0  0  0  0  0  0  0  0
    3.0950    4.9260   19.3850 N   0  0  0  0  0  0  0  0  0  0  0  0
    2.4550    5.7360   20.3510 O   0  0  0  0  0  0  0  0  0  0  0  0
    2.2490    6.9470   19.7990 C   0  0  0  0  0  0  0  0  0  0  0  0
    1.5580    8.3820   20.2720 S   0  0  0  0  0  0  0  0  0  0  0  0
    2.8510    8.3780   16.8430 H   0  0  0  0  0  0  0  0  0  0  0  0
    3.8750    5.1630   17.0650 C   0  0  0  0  0  0  0  0  0  0  0  0
    4.6860    5.8190   16.7360 H   0  0  0  0  0  0  0  0  0  0  0  0
    3.1440    5.0820   16.2530 H   0  0  0  0  0  0  0  0  0  0  0  0
    4.2930    4.1670   17.2390 H   0  0  0  0  0  0  0  0  0  0  0  0
   -0.7520   12.0930   21.7380 S   0  0  0  0  0  0  0  0  0  0  0  0
    0.5310   12.7670   21.7480 O   0  0  0  0  0  0  0  0  0  0  0  0
   -0.8490   10.7060   22.1440 O   0  0  0  0  0  0  0  0  0  0  0  0
   -3.8600   13.0140   24.1700 C   0  0  0  0  0  0  0  0  0  0  0  0
   -3.8030   14.4080   24.2380 C   0  0  0  0  0  0  0  0  0  0  0  0
   -2.8070   15.1130   23.5550 C   0  0  0  0  0  0  0  0  0  0  0  0
   -1.8420   14.4450   22.7830 C   0  0  0  0  0  0  0  0  0  0  0  0
   -1.9140   13.0410   22.7070 C   0  0  0  0  0  0  0  0  0  0  0  0
   -2.9220   12.3350   23.3870 C   0  0  0  0  0  0  0  0  0  0  0  0
   -4.5380   14.9590   24.8210 H   0  0  0  0  0  0  0  0  0  0  0  0
   -2.7970   16.1990   23.6250 H   0  0  0  0  0  0  0  0  0  0  0  0
   -2.9770   11.2490   23.3110 H   0  0  0  0  0  0  0  0  0  0  0  0
   -4.9530   12.2650   24.8760 C   0  0  0  0  0  0  0  0  0  0  0  0
   -5.4620   12.9130   25.5960 H   0  0  0  0  0  0  0  0  0  0  0  0
   -5.6840   11.8940   24.1490 H   0  0  0  0  0  0  0  0  0  0  0  0
   -4.5500   11.4140   25.4360 H   0  0  0  0  0  0  0  0  0  0  0  0
   -0.8180   15.2670   22.0480 C   0  0  0  0  0  0  0  0  0  0  0  0
   -0.6200   14.8380   21.0620 H   0  0  0  0  0  0  0  0  0  0  0  0
   -1.1710   16.2930   21.8950 H   0  0  0  0  0  0  0  0  0  0  0  0
    0.1130   15.3430   22.6170 H   0  0  0  0  0  0  0  0  0  0  0  0
  1 30  1  0  0  0  0
  2  9  1  0  0  0  0
  2  1  1  0  0  0  0
  3  4  1  0  0  0  0
  3  2  1  0  0  0  0
  4  5  1  0  0  0  0
  4  7  1  0  0  0  0
  5 17  1  0  0  0  0
  6  5  2  0  0  0  0
  7  8  1  0  0  0  0
  7 14  1  0  0  0  0
  8  1  1  0  0  0  0
  8 15  1  0  0  0  0
 10  2  1  0  0  0  0
 11  3  1  0  0  0  0
 12  3  1  0  0  0  0
 13  7  1  0  0  0  0
 16  8  1  0  0  0  0
 17 24  1  0  0  0  0
 18 19  1  0  0  0  0
 18 17  2  0  0  0  0
 19 23  2  0  0  0  0
 20 19  1  0  0  0  0
 20 21  2  0  0  0  0
 21 22  1  0  0  0  0
 23 24  1  0  0  0  0
 23 22  1  0  0  0  0
 25 18  1  0  0  0  0
 26 29  1  0  0  0  0
 26 20  1  0  0  0  0
 27 26  1  0  0  0  0
 28 26  1  0  0  0  0
 30 31  2  0  0  0  0
 30 32  2  0  0  0  0
 30 37  1  0  0  0  0
 33 34  1  0  0  0  0
 33 42  1  0  0  0  0
 34 39  1  0  0  0  0
 35 40  1  0  0  0  0
 35 34  2  0  0  0  0
 36 35  1  0  0  0  0
 37 36  2  0  0  0  0
 37 38  1  0  0  0  0
 38 33  2  0  0  0  0
 41 38  1  0  0  0  0
 42 45  1  0  0  0  0
 42 43  1  0  0  0  0
 44 42  1  0  0  0  0
 46 49  1  0  0  0  0
 46 36  1  0  0  0  0
 47 46  1  0  0  0  0
 48 46  1  0  0  0  0
M  END
>  <MODEL>
2

>  <REMARK>
 VINA RESULT:    -7.118      3.400     10.379
 INTER + INTRA:          -6.852
 INTER:                  -7.188
 INTRA:                   0.336
 UNBOUND:                 2.138
  Name = 
  6 active torsions:
  status: ('A' for Active; 'I' for Inactive)
    1  A    between atoms: C_1  and  C_2
    2  A    between atoms: C_5  and  C_6
    3  A    between atoms: C_7  and  S_8
    4  A    between atoms: S_8  and  N_11
    5  A    between atoms: C_15  and  C_17
    6  A    between atoms: C_20  and  C_21
                            x       y       z     vdW  Elec       q    Type
                         _______ _______ _______ _____ _____    ______ ____

>  <TORSDO>
F 6

$$$$
=
 OpenBabel07192307433D

 49 52  0  0  0  0  0  0  0  0999 V2000
   -1.3340   13.5670   20.1090 N   0  0  0  0  0  0  0  0  0  0  0  0
   -0.3730   14.0100   19.0300 C   0  0  0  0  0  0  0  0  0  0  0  0
   -0.2630   12.9880   17.8890 C   0  0  0  0  0  0  0  0  0  0  0  0
   -0.0560   11.6450   18.4280 N   0  0  0  0  0  0  0  0  0  0  0  0
    1.2660   11.1920   18.5440 C   0  0  0  0  0  0  0  0  0  0  0  0
    2.2050   11.9250   18.2280 O   0  0  0  0  0  0  0  0  0  0  0  0
   -1.1190   11.1800   19.3350 C   0  0  0  0  0  0  0  0  0  0  0  0
   -2.0760   12.3140   19.7540 C   0  0  0  0  0  0  0  0  0  0  0  0
    0.6260   14.1720   19.4470 H   0  0  0  0  0  0  0  0  0  0  0  0
   -0.7210   14.9710   18.6390 H   0  0  0  0  0  0  0  0  0  0  0  0
    0.5450   13.2690   17.2070 H   0  0  0  0  0  0  0  0  0  0  0  0
   -1.1830   12.9670   17.2960 H   0  0  0  0  0  0  0  0  0  0  0  0
   -1.6910   10.4080   18.8120 H   0  0  0  0  0  0  0  0  0  0  0  0
   -0.6740   10.7340   20.2290 H   0  0  0  0  0  0  0  0  0  0  0  0
   -2.7210   11.9880   20.5770 H   0  0  0  0  0  0  0  0  0  0  0  0
   -2.7590   12.5590   18.9290 H   0  0  0  0  0  0  0  0  0  0  0  0
    1.5090    9.8510   19.0520 C   0  0  0  0  0  0  0  0  0  0  0  0
    2.0000    8.7600   18.3260 C   0  0  0  0  0  0  0  0  0  0  0  0
    2.0100    7.6460   19.1540 C   0  0  0  0  0  0  0  0  0  0  0  0
    2.3730    6.3130   19.0520 C   0  0  0  0  0  0  0  0  0  0  0  0
    2.1340    5.6980   20.2330 N   0  0  0  0  0  0  0  0  0  0  0  0
    1.6030    6.6910   21.0870 O   0  0  0  0  0  0  0  0  0  0  0  0
    1.5480    7.8430   20.3910 C   0  0  0  0  0  0  0  0  0  0  0  0
    1.0430    9.3990   20.6800 S   0  0  0  0  0  0  0  0  0  0  0  0
    2.3130    8.8200   17.2920 H   0  0  0  0  0  0  0  0  0  0  0  0
    2.9270    5.5540   17.9100 C   0  0  0  0  0  0  0  0  0  0  0  0
    4.0080    5.7100   17.8400 H   0  0  0  0  0  0  0  0  0  0  0  0
    2.4690    5.8770   16.9690 H   0  0  0  0  0  0  0  0  0  0  0  0
    2.7460    4.4800   18.0180 H   0  0  0  0  0  0  0  0  0  0  0  0
   -0.6910   13.5480   21.6970 S   0  0  0  0  0  0  0  0  0  0  0  0
   -0.1980   14.8840   21.9700 O   0  0  0  0  0  0  0  0  0  0  0  0
    0.1940   12.4080   21.8130 O   0  0  0  0  0  0  0  0  0  0  0  0
   -4.1880   14.1290   23.6610 C   0  0  0  0  0  0  0  0  0  0  0  0
   -4.4060   12.8980   24.2840 C   0  0  0  0  0  0  0  0  0  0  0  0
   -3.5010   11.8460   24.1160 C   0  0  0  0  0  0  0  0  0  0  0  0
   -2.3520   11.9940   23.3230 C   0  0  0  0  0  0  0  0  0  0  0  0
   -2.1300   13.2420   22.7090 C   0  0  0  0  0  0  0  0  0  0  0  0
   -3.0370   14.3020   22.8870 C   0  0  0  0  0  0  0  0  0  0  0  0
   -5.2830   12.7490   24.9110 H   0  0  0  0  0  0  0  0  0  0  0  0
   -3.7000   10.9030   24.6220 H   0  0  0  0  0  0  0  0  0  0  0  0
   -2.8490   15.2680   22.4180 H   0  0  0  0  0  0  0  0  0  0  0  0
   -5.1450   15.2660   23.8740 C   0  0  0  0  0  0  0  0  0  0  0  0
   -4.9100   16.1000   23.2050 H   0  0  0  0  0  0  0  0  0  0  0  0
   -6.1710   14.9330   23.6840 H   0  0  0  0  0  0  0  0  0  0  0  0
   -5.0830   15.6470   24.9000 H   0  0  0  0  0  0  0  0  0  0  0  0
   -1.4030   10.8320   23.2110 C   0  0  0  0  0  0  0  0  0  0  0  0
   -1.5180   10.1610   24.0670 H   0  0  0  0  0  0  0  0  0  0  0  0
   -1.6010   10.2460   22.3060 H   0  0  0  0  0  0  0  0  0  0  0  0
   -0.3660   11.1700   23.1370 H   0  0  0  0  0  0  0  0  0  0  0  0
  1 30  1  0  0  0  0
  2  9  1  0  0  0  0
  2  1  1  0  0  0  0
  3  4  1  0  0  0  0
  3  2  1  0  0  0  0
  4  5  1  0  0  0  0
  4  7  1  0  0  0  0
  5 17  1  0  0  0  0
  6  5  2  0  0  0  0
  7  8  1  0  0  0  0
  7 14  1  0  0  0  0
  8  1  1  0  0  0  0
  8 15  1  0  0  0  0
 10  2  1  0  0  0  0
 11  3  1  0  0  0  0
 12  3  1  0  0  0  0
 13  7  1  0  0  0  0
 16  8  1  0  0  0  0
 17 24  1  0  0  0  0
 18 17  2  0  0  0  0
 18 19  1  0  0  0  0
 19 23  2  0  0  0  0
 20 19  1  0  0  0  0
 20 21  2  0  0  0  0
 21 22  1  0  0  0  0
 23 24  1  0  0  0  0
 23 22  1  0  0  0  0
 25 18  1  0  0  0  0
 26 29  1  0  0  0  0
 26 20  1  0  0  0  0
 27 26  1  0  0  0  0
 28 26  1  0  0  0  0
 30 32  2  0  0  0  0
 30 31  2  0  0  0  0
 30 37  1  0  0  0  0
 33 42  1  0  0  0  0
 33 34  1  0  0  0  0
 34 39  1  0  0  0  0
 35 34  2  0  0  0  0
 35 40  1  0  0  0  0
 36 35  1  0  0  0  0
 37 38  1  0  0  0  0
 37 36  2  0  0  0  0
 38 33  2  0  0  0  0
 41 38  1  0  0  0  0
 42 45  1  0  0  0  0
 43 42  1  0  0  0  0
 44 42  1  0  0  0  0
 46 36  1  0  0  0  0
 46 47  1  0  0  0  0
 48 46  1  0  0  0  0
 49 46  1  0  0  0  0
M  END
>  <MODEL>
3

>  <REMARK>
 VINA RESULT:    -7.014      3.668     10.646
 INTER + INTRA:          -6.721
 INTER:                  -7.409
 INTRA:                   0.688
 UNBOUND:                 2.138
  Name = 
  6 active torsions:
  status: ('A' for Active; 'I' for Inactive)
    1  A    between atoms: C_1  and  C_2
    2  A    between atoms: C_5  and  C_6
    3  A    between atoms: C_7  and  S_8
    4  A    between atoms: S_8  and  N_11
    5  A    between atoms: C_15  and  C_17
    6  A    between atoms: C_20  and  C_21
                            x       y       z     vdW  Elec       q    Type
                         _______ _______ _______ _____ _____    ______ ____

>  <TORSDO>
F 6

$$$$
=
 OpenBabel07192307433D

 49 52  0  0  0  0  0  0  0  0999 V2000
   -0.2930   11.5120   20.8490 N   0  0  0  0  0  0  0  0  0  0  0  0
   -0.7160   10.4670   21.8560 C   0  0  0  0  0  0  0  0  0  0  0  0
    0.4780    9.6910   22.4300 C   0  0  0  0  0  0  0  0  0  0  0  0
    1.3540    9.2340   21.3530 N   0  0  0  0  0  0  0  0  0  0  0  0
    1.1480    7.9380   20.8580 C   0  0  0  0  0  0  0  0  0  0  0  0
    0.2380    7.2380   21.3070 O   0  0  0  0  0  0  0  0  0  0  0  0
    1.8940   10.3120   20.5070 C   0  0  0  0  0  0  0  0  0  0  0  0
    1.1960   11.6630   20.7530 C   0  0  0  0  0  0  0  0  0  0  0  0
   -1.4060    9.7510   21.4000 H   0  0  0  0  0  0  0  0  0  0  0  0
   -1.2570   10.9720   22.6620 H   0  0  0  0  0  0  0  0  0  0  0  0
    0.1260    8.8510   23.0370 H   0  0  0  0  0  0  0  0  0  0  0  0
    1.0740   10.3290   23.0920 H   0  0  0  0  0  0  0  0  0  0  0  0
    2.9590   10.4150   20.7360 H   0  0  0  0  0  0  0  0  0  0  0  0
    1.7940   10.0400   19.4520 H   0  0  0  0  0  0  0  0  0  0  0  0
    1.4720   12.3860   19.9780 H   0  0  0  0  0  0  0  0  0  0  0  0
    1.5430   12.1040   21.6970 H   0  0  0  0  0  0  0  0  0  0  0  0
    2.0170    7.4400   19.8030 C   0  0  0  0  0  0  0  0  0  0  0  0
    2.8170    6.2940   19.8530 C   0  0  0  0  0  0  0  0  0  0  0  0
    3.5510    6.2140   18.6770 C   0  0  0  0  0  0  0  0  0  0  0  0
    4.4830    5.3520   18.1220 C   0  0  0  0  0  0  0  0  0  0  0  0
    4.8590    5.8280   16.9130 N   0  0  0  0  0  0  0  0  0  0  0  0
    4.1330    7.0250   16.7240 O   0  0  0  0  0  0  0  0  0  0  0  0
    3.3620    7.2140   17.8120 C   0  0  0  0  0  0  0  0  0  0  0  0
    2.2800    8.3610   18.3350 S   0  0  0  0  0  0  0  0  0  0  0  0
    2.8280    5.6050   20.6890 H   0  0  0  0  0  0  0  0  0  0  0  0
    5.0650    4.1000   18.6510 C   0  0  0  0  0  0  0  0  0  0  0  0
    4.3220    3.2980   18.6310 H   0  0  0  0  0  0  0  0  0  0  0  0
    5.4030    4.2340   19.6840 H   0  0  0  0  0  0  0  0  0  0  0  0
    5.9270    3.7790   18.0570 H   0  0  0  0  0  0  0  0  0  0  0  0
   -1.0650   11.4120   19.3230 S   0  0  0  0  0  0  0  0  0  0  0  0
   -1.2150   10.0030   19.0170 O   0  0  0  0  0  0  0  0  0  0  0  0
   -0.3660   12.2860   18.4050 O   0  0  0  0  0  0  0  0  0  0  0  0
   -4.0500   13.5120   21.0860 C   0  0  0  0  0  0  0  0  0  0  0  0
   -5.1470   13.2480   20.2630 C   0  0  0  0  0  0  0  0  0  0  0  0
   -5.0110   12.4320   19.1360 C   0  0  0  0  0  0  0  0  0  0  0  0
   -3.7760   11.8540   18.8010 C   0  0  0  0  0  0  0  0  0  0  0  0
   -2.6760   12.1120   19.6420 C   0  0  0  0  0  0  0  0  0  0  0  0
   -2.8180   12.9260   20.7800 C   0  0  0  0  0  0  0  0  0  0  0  0
   -6.1210   13.6740   20.4950 H   0  0  0  0  0  0  0  0  0  0  0  0
   -5.8890   12.2430   18.5210 H   0  0  0  0  0  0  0  0  0  0  0  0
   -1.9640   13.1090   21.4330 H   0  0  0  0  0  0  0  0  0  0  0  0
   -4.2100   14.3600   22.3140 C   0  0  0  0  0  0  0  0  0  0  0  0
   -3.2400   14.7380   22.6520 H   0  0  0  0  0  0  0  0  0  0  0  0
   -4.8710   15.2070   22.1010 H   0  0  0  0  0  0  0  0  0  0  0  0
   -4.6370   13.7800   23.1410 H   0  0  0  0  0  0  0  0  0  0  0  0
   -3.7060   10.9600   17.5930 C   0  0  0  0  0  0  0  0  0  0  0  0
   -4.7000   10.5780   17.3430 H   0  0  0  0  0  0  0  0  0  0  0  0
   -3.3350   11.5070   16.7180 H   0  0  0  0  0  0  0  0  0  0  0  0
   -3.0150   10.1290   17.7520 H   0  0  0  0  0  0  0  0  0  0  0  0
  1  2  1  0  0  0  0
  2  3  1  0  0  0  0
  2 10  1  0  0  0  0
  3 11  1  0  0  0  0
  3 12  1  0  0  0  0
  4  3  1  0  0  0  0
  5  6  2  0  0  0  0
  5  4  1  0  0  0  0
  7 13  1  0  0  0  0
  7  8  1  0  0  0  0
  7  4  1  0  0  0  0
  8  1  1  0  0  0  0
  8 16  1  0  0  0  0
  9  2  1  0  0  0  0
 14  7  1  0  0  0  0
 15  8  1  0  0  0  0
 17 18  2  0  0  0  0
 17  5  1  0  0  0  0
 18 25  1  0  0  0  0
 19 18  1  0  0  0  0
 20 26  1  0  0  0  0
 20 19  1  0  0  0  0
 21 20  2  0  0  0  0
 22 21  1  0  0  0  0
 22 23  1  0  0  0  0
 23 24  1  0  0  0  0
 23 19  2  0  0  0  0
 24 17  1  0  0  0  0
 26 28  1  0  0  0  0
 27 26  1  0  0  0  0
 29 26  1  0  0  0  0
 30 37  1  0  0  0  0
 30  1  1  0  0  0  0
 31 30  2  0  0  0  0
 32 30  2  0  0  0  0
 33 42  1  0  0  0  0
 34 39  1  0  0  0  0
 34 33  2  0  0  0  0
 35 34  1  0  0  0  0
 36 35  2  0  0  0  0
 36 37  1  0  0  0  0
 37 38  2  0  0  0  0
 38 33  1  0  0  0  0
 38 41  1  0  0  0  0
 40 35  1  0  0  0  0
 42 43  1  0  0  0  0
 42 45  1  0  0  0  0
 44 42  1  0  0  0  0
 46 49  1  0  0  0  0
 46 36  1  0  0  0  0
 47 46  1  0  0  0  0
 48 46  1  0  0  0  0
M  END
>  <MODEL>
4

>  <REMARK>
 VINA RESULT:    -6.772      3.413      9.551
 INTER + INTRA:          -6.416
 INTER:                  -6.685
 INTRA:                   0.268
 UNBOUND:                 2.138
  Name = 
  6 active torsions:
  status: ('A' for Active; 'I' for Inactive)
    1  A    between atoms: C_1  and  C_2
    2  A    between atoms: C_5  and  C_6
    3  A    between atoms: C_7  and  S_8
    4  A    between atoms: S_8  and  N_11
    5  A    between atoms: C_15  and  C_17
    6  A    between atoms: C_20  and  C_21
                            x       y       z     vdW  Elec       q    Type
                         _______ _______ _______ _____ _____    ______ ____

>  <TORSDO>
F 6

$$$$
=
 OpenBabel07192307433D

 49 52  0  0  0  0  0  0  0  0999 V2000
   -0.1630   11.9660   20.4740 N   0  0  0  0  0  0  0  0  0  0  0  0
   -0.9880   11.1940   21.4780 C   0  0  0  0  0  0  0  0  0  0  0  0
   -0.1220   10.3350   22.4100 C   0  0  0  0  0  0  0  0  0  0  0  0
    0.8460    9.5600   21.6360 N   0  0  0  0  0  0  0  0  0  0  0  0
    0.4870    8.2530   21.2760 C   0  0  0  0  0  0  0  0  0  0  0  0
   -0.6190    7.8040   21.5840 O   0  0  0  0  0  0  0  0  0  0  0  0
    1.7570   10.3710   20.8100 C   0  0  0  0  0  0  0  0  0  0  0  0
    1.3120   11.8440   20.7120 C   0  0  0  0  0  0  0  0  0  0  0  0
   -1.7000   10.5390   20.9670 H   0  0  0  0  0  0  0  0  0  0  0  0
   -1.5700   11.9120   22.0640 H   0  0  0  0  0  0  0  0  0  0  0  0
   -0.7550    9.6820   23.0190 H   0  0  0  0  0  0  0  0  0  0  0  0
    0.4420   10.9650   23.1070 H   0  0  0  0  0  0  0  0  0  0  0  0
    2.7500   10.3300   21.2690 H   0  0  0  0  0  0  0  0  0  0  0  0
    1.8230    9.9450   19.8050 H   0  0  0  0  0  0  0  0  0  0  0  0
    1.8830   12.3670   19.9370 H   0  0  0  0  0  0  0  0  0  0  0  0
    1.5400   12.3730   21.6470 H   0  0  0  0  0  0  0  0  0  0  0  0
    1.4350    7.4440   20.5270 C   0  0  0  0  0  0  0  0  0  0  0  0
    2.1380    7.8290   19.3800 C   0  0  0  0  0  0  0  0  0  0  0  0
    2.8780    6.7440   18.9290 C   0  0  0  0  0  0  0  0  0  0  0  0
    3.7540    6.4800   17.8890 C   0  0  0  0  0  0  0  0  0  0  0  0
    4.1570    5.1910   17.9680 N   0  0  0  0  0  0  0  0  0  0  0  0
    3.5000    4.6470   19.0960 O   0  0  0  0  0  0  0  0  0  0  0  0
    2.7430    5.6200   19.6370 C   0  0  0  0  0  0  0  0  0  0  0  0
    1.6980    5.7560   20.9220 S   0  0  0  0  0  0  0  0  0  0  0  0
    2.0870    8.8210   18.9510 H   0  0  0  0  0  0  0  0  0  0  0  0
    4.2450    7.3540   16.8020 C   0  0  0  0  0  0  0  0  0  0  0  0
    5.2570    7.7050   17.0260 H   0  0  0  0  0  0  0  0  0  0  0  0
    3.5940    8.2260   16.6810 H   0  0  0  0  0  0  0  0  0  0  0  0
    4.2740    6.8230   15.8450 H   0  0  0  0  0  0  0  0  0  0  0  0
   -0.6070   11.7410   18.8350 S   0  0  0  0  0  0  0  0  0  0  0  0
   -0.2790   10.3720   18.4910 O   0  0  0  0  0  0  0  0  0  0  0  0
   -0.0580   12.8370   18.0630 O   0  0  0  0  0  0  0  0  0  0  0  0
   -4.3280   12.7860   20.0550 C   0  0  0  0  0  0  0  0  0  0  0  0
   -5.1470   12.2490   19.0590 C   0  0  0  0  0  0  0  0  0  0  0  0
   -4.5910   11.5620   17.9760 C   0  0  0  0  0  0  0  0  0  0  0  0
   -3.2030   11.3900   17.8580 C   0  0  0  0  0  0  0  0  0  0  0  0
   -2.3830   11.9210   18.8720 C   0  0  0  0  0  0  0  0  0  0  0  0
   -2.9450   12.6030   19.9660 C   0  0  0  0  0  0  0  0  0  0  0  0
   -6.2280   12.3580   19.1210 H   0  0  0  0  0  0  0  0  0  0  0  0
   -5.2600   11.1510   17.2220 H   0  0  0  0  0  0  0  0  0  0  0  0
   -2.3030   12.9990   20.7530 H   0  0  0  0  0  0  0  0  0  0  0  0
   -4.9320   13.4910   21.2350 C   0  0  0  0  0  0  0  0  0  0  0  0
   -5.0630   12.8000   22.0730 H   0  0  0  0  0  0  0  0  0  0  0  0
   -4.2860   14.3180   21.5490 H   0  0  0  0  0  0  0  0  0  0  0  0
   -5.9220   13.8930   20.9890 H   0  0  0  0  0  0  0  0  0  0  0  0
   -2.6740   10.6120   16.6830 C   0  0  0  0  0  0  0  0  0  0  0  0
   -3.0960    9.6040   16.6710 H   0  0  0  0  0  0  0  0  0  0  0  0
   -2.9450   11.0940   15.7360 H   0  0  0  0  0  0  0  0  0  0  0  0
   -1.5820   10.5610   16.7000 H   0  0  0  0  0  0  0  0  0  0  0  0
  1  8  1  0  0  0  0
  1  2  1  0  0  0  0
  2 10  1  0  0  0  0
  2  3  1  0  0  0  0
  3 11  1  0  0  0  0
  3 12  1  0  0  0  0
  4  3  1  0  0  0  0
  5  6  2  0  0  0  0
  5  4  1  0  0  0  0
  7 13  1  0  0  0  0
  7  4  1  0  0  0  0
  8  7  1  0  0  0  0
  8 16  1  0  0  0  0
  9  2  1  0  0  0  0
 14  7  1  0  0  0  0
 15  8  1  0  0  0  0
 17 24  1  0  0  0  0
 17  5  1  0  0  0  0
 18 17  2  0  0  0  0
 19 18  1  0  0  0  0
 19 23  2  0  0  0  0
 20 21  2  0  0  0  0
 20 19  1  0  0  0  0
 21 22  1  0  0  0  0
 22 23  1  0  0  0  0
 23 24  1  0  0  0  0
 25 18  1  0  0  0  0
 26 27  1  0  0  0  0
 26 20  1  0  0  0  0
 28 26  1  0  0  0  0
 29 26  1  0  0  0  0
 30 37  1  0  0  0  0
 30  1  1  0  0  0  0
 31 30  2  0  0  0  0
 32 30  2  0  0  0  0
 33 42  1  0  0  0  0
 34 39  1  0  0  0  0
 34 33  2  0  0  0  0
 35 34  1  0  0  0  0
 36 35  2  0  0  0  0
 36 37  1  0  0  0  0
 37 38  2  0  0  0  0
 38 33  1  0  0  0  0
 38 41  1  0  0  0  0
 40 35  1  0  0  0  0
 42 44  1  0  0  0  0
 42 43  1  0  0  0  0
 45 42  1  0  0  0  0
 46 49  1  0  0  0  0
 46 36  1  0  0  0  0
 47 46  1  0  0  0  0
 48 46  1  0  0  0  0
M  END
>  <MODEL>
5

>  <REMARK>
 VINA RESULT:    -6.622      3.485      9.242
 INTER + INTRA:          -6.227
 INTER:                  -7.153
 INTRA:                   0.926
 UNBOUND:                 2.138
  Name = 
  6 active torsions:
  status: ('A' for Active; 'I' for Inactive)
    1  A    between atoms: C_1  and  C_2
    2  A    between atoms: C_5  and  C_6
    3  A    between atoms: C_7  and  S_8
    4  A    between atoms: S_8  and  N_11
    5  A    between atoms: C_15  and  C_17
    6  A    between atoms: C_20  and  C_21
                            x       y       z     vdW  Elec       q    Type
                         _______ _______ _______ _____ _____    ______ ____

>  <TORSDO>
F 6

$$$$
=
 OpenBabel07192307433D

 49 52  0  0  0  0  0  0  0  0999 V2000
    0.2750   10.6910   18.8470 N   0  0  0  0  0  0  0  0  0  0  0  0
   -0.9800   10.3760   18.0650 C   0  0  0  0  0  0  0  0  0  0  0  0
   -1.8050   11.6330   17.7510 C   0  0  0  0  0  0  0  0  0  0  0  0
   -1.9790   12.4420   18.9560 N   0  0  0  0  0  0  0  0  0  0  0  0
   -3.1480   12.2400   19.7050 C   0  0  0  0  0  0  0  0  0  0  0  0
   -3.9690   11.3890   19.3600 O   0  0  0  0  0  0  0  0  0  0  0  0
   -0.7220   12.8840   19.5820 C   0  0  0  0  0  0  0  0  0  0  0  0
    0.5120   12.1630   19.0040 C   0  0  0  0  0  0  0  0  0  0  0  0
   -1.6140    9.6770   18.6200 H   0  0  0  0  0  0  0  0  0  0  0  0
   -0.6850    9.8800   17.1350 H   0  0  0  0  0  0  0  0  0  0  0  0
   -2.7700   11.3530   17.3190 H   0  0  0  0  0  0  0  0  0  0  0  0
   -1.2960   12.2560   17.0070 H   0  0  0  0  0  0  0  0  0  0  0  0
   -0.6200   13.9590   19.4050 H   0  0  0  0  0  0  0  0  0  0  0  0
   -0.7660   12.7150   20.6620 H   0  0  0  0  0  0  0  0  0  0  0  0
    1.3960   12.3580   19.6210 H   0  0  0  0  0  0  0  0  0  0  0  0
    0.7560   12.5650   18.0120 H   0  0  0  0  0  0  0  0  0  0  0  0
   -3.3680   13.0450   20.8960 C   0  0  0  0  0  0  0  0  0  0  0  0
   -2.4020   13.4310   21.8330 C   0  0  0  0  0  0  0  0  0  0  0  0
   -3.0310   14.1230   22.8580 C   0  0  0  0  0  0  0  0  0  0  0  0
   -2.6540   14.7500   24.0350 C   0  0  0  0  0  0  0  0  0  0  0  0
   -3.7550   15.2540   24.6390 N   0  0  0  0  0  0  0  0  0  0  0  0
   -4.8440   14.9210   23.8010 O   0  0  0  0  0  0  0  0  0  0  0  0
   -4.3560   14.2410   22.7450 C   0  0  0  0  0  0  0  0  0  0  0  0
   -4.9820   13.5170   21.3880 S   0  0  0  0  0  0  0  0  0  0  0  0
   -1.3470   13.2080   21.7330 H   0  0  0  0  0  0  0  0  0  0  0  0
   -1.3210   14.9080   24.6540 C   0  0  0  0  0  0  0  0  0  0  0  0
   -0.5610   14.4030   24.0510 H   0  0  0  0  0  0  0  0  0  0  0  0
   -1.3060   14.4770   25.6610 H   0  0  0  0  0  0  0  0  0  0  0  0
   -1.0420   15.9630   24.7380 H   0  0  0  0  0  0  0  0  0  0  0  0
    0.4670    9.8120   20.3050 S   0  0  0  0  0  0  0  0  0  0  0  0
   -0.8550    9.3850   20.7190 O   0  0  0  0  0  0  0  0  0  0  0  0
    1.2920   10.5970   21.2000 O   0  0  0  0  0  0  0  0  0  0  0  0
    2.0550    6.0840   20.2620 C   0  0  0  0  0  0  0  0  0  0  0  0
    2.8430    6.0920   19.1100 C   0  0  0  0  0  0  0  0  0  0  0  0
    2.9080    7.2310   18.3010 C   0  0  0  0  0  0  0  0  0  0  0  0
    2.1880    8.3930   18.6210 C   0  0  0  0  0  0  0  0  0  0  0  0
    1.4050    8.3830   19.7910 C   0  0  0  0  0  0  0  0  0  0  0  0
    1.3500    7.2400   20.6080 C   0  0  0  0  0  0  0  0  0  0  0  0
    3.4200    5.2120   18.8340 H   0  0  0  0  0  0  0  0  0  0  0  0
    3.5380    7.2040   17.4140 H   0  0  0  0  0  0  0  0  0  0  0  0
    0.7520    7.2470   21.5200 H   0  0  0  0  0  0  0  0  0  0  0  0
    2.0180    4.8710   21.1460 C   0  0  0  0  0  0  0  0  0  0  0  0
    0.9950    4.6660   21.4790 H   0  0  0  0  0  0  0  0  0  0  0  0
    2.3990    4.0000   20.6030 H   0  0  0  0  0  0  0  0  0  0  0  0
    2.6270    5.0200   22.0450 H   0  0  0  0  0  0  0  0  0  0  0  0
    2.3280    9.5930   17.7240 C   0  0  0  0  0  0  0  0  0  0  0  0
    1.3460    9.9260   17.3750 H   0  0  0  0  0  0  0  0  0  0  0  0
    2.7900   10.4330   18.2560 H   0  0  0  0  0  0  0  0  0  0  0  0
    2.9750    9.3770   16.8690 H   0  0  0  0  0  0  0  0  0  0  0  0
  1  8  1  0  0  0  0
  1 30  1  0  0  0  0
  2  9  1  0  0  0  0
  2  1  1  0  0  0  0
  3  2  1  0  0  0  0
  3  4  1  0  0  0  0
  4  7  1  0  0  0  0
  4  5  1  0  0  0  0
  5 17  1  0  0  0  0
  6  5  2  0  0  0  0
  7 14  1  0  0  0  0
  8  7  1  0  0  0  0
  8 15  1  0  0  0  0
 10  2  1  0  0  0  0
 11  3  1  0  0  0  0
 12  3  1  0  0  0  0
 13  7  1  0  0  0  0
 16  8  1  0  0  0  0
 17 24  1  0  0  0  0
 17 18  2  0  0  0  0
 18 19  1  0  0  0  0
 19 20  1  0  0  0  0
 20 21  2  0  0  0  0
 20 26  1  0  0  0  0
 22 21  1  0  0  0  0
 23 19  2  0  0  0  0
 23 22  1  0  0  0  0
 24 23  1  0  0  0  0
 25 18  1  0  0  0  0
 26 29  1  0  0  0  0
 26 28  1  0  0  0  0
 27 26  1  0  0  0  0
 30 31  2  0  0  0  0
 30 32  2  0  0  0  0
 33 38  1  0  0  0  0
 33 42  1  0  0  0  0
 34 33  2  0  0  0  0
 35 36  2  0  0  0  0
 35 34  1  0  0  0  0
 36 37  1  0  0  0  0
 37 30  1  0  0  0  0
 37 38  2  0  0  0  0
 38 41  1  0  0  0  0
 39 34  1  0  0  0  0
 40 35  1  0  0  0  0
 42 43  1  0  0  0  0
 42 45  1  0  0  0  0
 44 42  1  0  0  0  0
 46 48  1  0  0  0  0
 46 36  1  0  0  0  0
 47 46  1  0  0  0  0
 49 46  1  0  0  0  0
M  END
>  <MODEL>
6

>  <REMARK>
 VINA RESULT:    -6.611      4.768      7.743
 INTER + INTRA:          -6.212
 INTER:                  -7.383
 INTRA:                   1.171
 UNBOUND:                 2.138
  Name = 
  6 active torsions:
  status: ('A' for Active; 'I' for Inactive)
    1  A    between atoms: C_1  and  C_2
    2  A    between atoms: C_5  and  C_6
    3  A    between atoms: C_7  and  S_8
    4  A    between atoms: S_8  and  N_11
    5  A    between atoms: C_15  and  C_17
    6  A    between atoms: C_20  and  C_21
                            x       y       z     vdW  Elec       q    Type
                         _______ _______ _______ _____ _____    ______ ____

>  <TORSDO>
F 6

$$$$
=
 OpenBabel07192307433D

 49 52  0  0  0  0  0  0  0  0999 V2000
    4.1030    3.6360   17.9890 N   0  0  0  0  0  0  0  0  0  0  0  0
    3.6000    2.9810   19.2540 C   0  0  0  0  0  0  0  0  0  0  0  0
    2.1040    3.2350   19.4890 C   0  0  0  0  0  0  0  0  0  0  0  0
    1.7980    4.6550   19.3300 N   0  0  0  0  0  0  0  0  0  0  0  0
    1.7960    5.4490   20.4870 C   0  0  0  0  0  0  0  0  0  0  0  0
    2.0740    4.9550   21.5810 O   0  0  0  0  0  0  0  0  0  0  0  0
    2.1370    5.2090   18.0080 C   0  0  0  0  0  0  0  0  0  0  0  0
    3.0070    4.2500   17.1720 C   0  0  0  0  0  0  0  0  0  0  0  0
    4.1530    3.3480   20.1240 H   0  0  0  0  0  0  0  0  0  0  0  0
    3.7890    1.9050   19.1790 H   0  0  0  0  0  0  0  0  0  0  0  0
    1.8110    2.8750   20.4800 H   0  0  0  0  0  0  0  0  0  0  0  0
    1.4970    2.6830   18.7620 H   0  0  0  0  0  0  0  0  0  0  0  0
    1.2000    5.3960   17.4740 H   0  0  0  0  0  0  0  0  0  0  0  0
    2.6620    6.1610   18.1290 H   0  0  0  0  0  0  0  0  0  0  0  0
    3.4080    4.7640   16.2920 H   0  0  0  0  0  0  0  0  0  0  0  0
    2.3940    3.4300   16.7740 H   0  0  0  0  0  0  0  0  0  0  0  0
    1.4700    6.8610   20.3700 C   0  0  0  0  0  0  0  0  0  0  0  0
    1.9140    7.7410   19.3770 C   0  0  0  0  0  0  0  0  0  0  0  0
    1.4430    9.0130   19.6680 C   0  0  0  0  0  0  0  0  0  0  0  0
    1.5180   10.2750   19.1000 C   0  0  0  0  0  0  0  0  0  0  0  0
    0.8430   11.1510   19.8800 N   0  0  0  0  0  0  0  0  0  0  0  0
    0.3380   10.3970   20.9640 O   0  0  0  0  0  0  0  0  0  0  0  0
    0.7270    9.1190   20.7910 C   0  0  0  0  0  0  0  0  0  0  0  0
    0.5570    7.6880   21.6170 S   0  0  0  0  0  0  0  0  0  0  0  0
    2.5210    7.4360   18.5330 H   0  0  0  0  0  0  0  0  0  0  0  0
    2.1950   10.7340   17.8690 C   0  0  0  0  0  0  0  0  0  0  0  0
    2.5900    9.8790   17.3120 H   0  0  0  0  0  0  0  0  0  0  0  0
    3.0270   11.4050   18.1080 H   0  0  0  0  0  0  0  0  0  0  0  0
    1.5060   11.2770   17.2130 H   0  0  0  0  0  0  0  0  0  0  0  0
    5.4600    4.6640   18.1870 S   0  0  0  0  0  0  0  0  0  0  0  0
    6.4270    3.9380   18.9870 O   0  0  0  0  0  0  0  0  0  0  0  0
    4.9840    5.9610   18.6210 O   0  0  0  0  0  0  0  0  0  0  0  0
    6.0330    4.0160   14.2280 C   0  0  0  0  0  0  0  0  0  0  0  0
    7.0010    4.9650   13.8920 C   0  0  0  0  0  0  0  0  0  0  0  0
    7.5030    5.8420   14.8590 C   0  0  0  0  0  0  0  0  0  0  0  0
    7.0530    5.7950   16.1880 C   0  0  0  0  0  0  0  0  0  0  0  0
    6.0860    4.8270   16.5240 C   0  0  0  0  0  0  0  0  0  0  0  0
    5.5910    3.9400   15.5520 C   0  0  0  0  0  0  0  0  0  0  0  0
    7.3790    5.0270   12.8740 H   0  0  0  0  0  0  0  0  0  0  0  0
    8.2620    6.5640   14.5630 H   0  0  0  0  0  0  0  0  0  0  0  0
    4.8530    3.1850   15.8250 H   0  0  0  0  0  0  0  0  0  0  0  0
    5.5250    3.0540   13.1940 C   0  0  0  0  0  0  0  0  0  0  0  0
    4.8150    2.3490   13.6380 H   0  0  0  0  0  0  0  0  0  0  0  0
    5.0280    3.6000   12.3850 H   0  0  0  0  0  0  0  0  0  0  0  0
    6.3440    2.4640   12.7690 H   0  0  0  0  0  0  0  0  0  0  0  0
    7.6580    6.7470   17.1850 C   0  0  0  0  0  0  0  0  0  0  0  0
    8.6720    6.4340   17.4440 H   0  0  0  0  0  0  0  0  0  0  0  0
    7.7210    7.7610   16.7740 H   0  0  0  0  0  0  0  0  0  0  0  0
    7.0460    6.8190   18.0880 H   0  0  0  0  0  0  0  0  0  0  0  0
  1 30  1  0  0  0  0
  1  2  1  0  0  0  0
  2  3  1  0  0  0  0
  2  9  1  0  0  0  0
  3 11  1  0  0  0  0
  4  3  1  0  0  0  0
  4  5  1  0  0  0  0
  5  6  2  0  0  0  0
  7 14  1  0  0  0  0
  7  4  1  0  0  0  0
  8  1  1  0  0  0  0
  8  7  1  0  0  0  0
 10  2  1  0  0  0  0
 12  3  1  0  0  0  0
 13  7  1  0  0  0  0
 15  8  1  0  0  0  0
 16  8  1  0  0  0  0
 17  5  1  0  0  0  0
 17 24  1  0  0  0  0
 18 19  1  0  0  0  0
 18 17  2  0  0  0  0
 19 23  2  0  0  0  0
 20 19  1  0  0  0  0
 20 21  2  0  0  0  0
 21 22  1  0  0  0  0
 23 22  1  0  0  0  0
 23 24  1  0  0  0  0
 25 18  1  0  0  0  0
 26 28  1  0  0  0  0
 26 20  1  0  0  0  0
 27 26  1  0  0  0  0
 29 26  1  0  0  0  0
 30 32  2  0  0  0  0
 30 31  2  0  0  0  0
 33 38  1  0  0  0  0
 34 33  2  0  0  0  0
 34 35  1  0  0  0  0
 35 36  2  0  0  0  0
 36 37  1  0  0  0  0
 36 46  1  0  0  0  0
 37 30  1  0  0  0  0
 38 41  1  0  0  0  0
 38 37  2  0  0  0  0
 39 34  1  0  0  0  0
 40 35  1  0  0  0  0
 42 43  1  0  0  0  0
 42 33  1  0  0  0  0
 44 42  1  0  0  0  0
 45 42  1  0  0  0  0
 46 47  1  0  0  0  0
 46 49  1  0  0  0  0
 48 46  1  0  0  0  0
M  END
>  <MODEL>
7

>  <REMARK>
 VINA RESULT:    -6.562      0.954      1.525
 INTER + INTRA:          -6.150
 INTER:                  -6.862
 INTRA:                   0.712
 UNBOUND:                 2.138
  Name = 
  6 active torsions:
  status: ('A' for Active; 'I' for Inactive)
    1  A    between atoms: C_1  and  C_2
    2  A    between atoms: C_5  and  C_6
    3  A    between atoms: C_7  and  S_8
    4  A    between atoms: S_8  and  N_11
    5  A    between atoms: C_15  and  C_17
    6  A    between atoms: C_20  and  C_21
                            x       y       z     vdW  Elec       q    Type
                         _______ _______ _______ _____ _____    ______ ____

>  <TORSDO>
F 6

$$$$
=
 OpenBabel07192307433D

 49 52  0  0  0  0  0  0  0  0999 V2000
    0.3980   13.5110   20.0960 N   0  0  0  0  0  0  0  0  0  0  0  0
    0.6880   13.9240   21.5210 C   0  0  0  0  0  0  0  0  0  0  0  0
    1.4360   15.2630   21.6000 C   0  0  0  0  0  0  0  0  0  0  0  0
    2.5720   15.2670   20.6810 N   0  0  0  0  0  0  0  0  0  0  0  0
    3.8220   14.8930   21.1980 C   0  0  0  0  0  0  0  0  0  0  0  0
    3.9310   14.5500   22.3770 O   0  0  0  0  0  0  0  0  0  0  0  0
    2.2170   15.0430   19.2700 C   0  0  0  0  0  0  0  0  0  0  0  0
    0.7630   14.5650   19.0950 C   0  0  0  0  0  0  0  0  0  0  0  0
    1.2880   13.1630   22.0280 H   0  0  0  0  0  0  0  0  0  0  0  0
   -0.2650   13.9960   22.0550 H   0  0  0  0  0  0  0  0  0  0  0  0
    1.7580   15.4560   22.6290 H   0  0  0  0  0  0  0  0  0  0  0  0
    0.7790   16.0930   21.3160 H   0  0  0  0  0  0  0  0  0  0  0  0
    2.3460   15.9910   18.7380 H   0  0  0  0  0  0  0  0  0  0  0  0
    2.8950   14.3060   18.8300 H   0  0  0  0  0  0  0  0  0  0  0  0
    0.5930   14.2150   18.0710 H   0  0  0  0  0  0  0  0  0  0  0  0
    0.0680   15.4050   19.2330 H   0  0  0  0  0  0  0  0  0  0  0  0
    4.9810   14.9100   20.3190 C   0  0  0  0  0  0  0  0  0  0  0  0
    6.3230   14.8370   20.7060 C   0  0  0  0  0  0  0  0  0  0  0  0
    7.1180   14.9630   19.5750 C   0  0  0  0  0  0  0  0  0  0  0  0
    8.4730   14.9670   19.2860 C   0  0  0  0  0  0  0  0  0  0  0  0
    8.6400   15.1470   17.9550 N   0  0  0  0  0  0  0  0  0  0  0  0
    7.3390   15.2600   17.4130 O   0  0  0  0  0  0  0  0  0  0  0  0
    6.4600   15.1440   18.4270 C   0  0  0  0  0  0  0  0  0  0  0  0
    4.8090   15.1880   18.5970 S   0  0  0  0  0  0  0  0  0  0  0  0
    6.6450   14.7010   21.7310 H   0  0  0  0  0  0  0  0  0  0  0  0
    9.6440   14.8230   20.1760 C   0  0  0  0  0  0  0  0  0  0  0  0
    9.5040   15.4140   21.0860 H   0  0  0  0  0  0  0  0  0  0  0  0
   10.5570   15.1670   19.6770 H   0  0  0  0  0  0  0  0  0  0  0  0
    9.7970   13.7790   20.4690 H   0  0  0  0  0  0  0  0  0  0  0  0
    0.9440   11.9460   19.6640 S   0  0  0  0  0  0  0  0  0  0  0  0
    1.1790   11.2230   20.8990 O   0  0  0  0  0  0  0  0  0  0  0  0
    2.0080   12.0910   18.6920 O   0  0  0  0  0  0  0  0  0  0  0  0
   -2.8700   11.3560   18.4290 C   0  0  0  0  0  0  0  0  0  0  0  0
   -2.7670   10.2210   17.6220 C   0  0  0  0  0  0  0  0  0  0  0  0
   -1.5280    9.6040   17.4180 C   0  0  0  0  0  0  0  0  0  0  0  0
   -0.3600   10.1030   18.0150 C   0  0  0  0  0  0  0  0  0  0  0  0
   -0.4720   11.2400   18.8380 C   0  0  0  0  0  0  0  0  0  0  0  0
   -1.7200   11.8520   19.0500 C   0  0  0  0  0  0  0  0  0  0  0  0
   -3.6520    9.8020   17.1490 H   0  0  0  0  0  0  0  0  0  0  0  0
   -1.4860    8.7170   16.7880 H   0  0  0  0  0  0  0  0  0  0  0  0
   -1.8000   12.7240   19.7000 H   0  0  0  0  0  0  0  0  0  0  0  0
   -4.2080   11.9920   18.6740 C   0  0  0  0  0  0  0  0  0  0  0  0
   -4.7940   11.3980   19.3820 H   0  0  0  0  0  0  0  0  0  0  0  0
   -4.0750   13.0020   19.0770 H   0  0  0  0  0  0  0  0  0  0  0  0
   -4.7890   12.0570   17.7470 H   0  0  0  0  0  0  0  0  0  0  0  0
    0.9350    9.3730   17.7780 C   0  0  0  0  0  0  0  0  0  0  0  0
    0.7860    8.2930   17.8700 H   0  0  0  0  0  0  0  0  0  0  0  0
    1.3200    9.5670   16.7710 H   0  0  0  0  0  0  0  0  0  0  0  0
    1.7110    9.7040   18.4740 H   0  0  0  0  0  0  0  0  0  0  0  0
  1  2  1  0  0  0  0
  2  3  1  0  0  0  0
  2  9  1  0  0  0  0
  2 10  1  0  0  0  0
  3 11  1  0  0  0  0
  4  5  1  0  0  0  0
  4  3  1  0  0  0  0
  5  6  2  0  0  0  0
  7  4  1  0  0  0  0
  8 16  1  0  0  0  0
  8  7  1  0  0  0  0
  8  1  1  0  0  0  0
 12  3  1  0  0  0  0
 13  7  1  0  0  0  0
 14  7  1  0  0  0  0
 15  8  1  0  0  0  0
 17 18  2  0  0  0  0
 17  5  1  0  0  0  0
 18 25  1  0  0  0  0
 19 18  1  0  0  0  0
 20 19  1  0  0  0  0
 20 26  1  0  0  0  0
 21 20  2  0  0  0  0
 22 21  1  0  0  0  0
 22 23  1  0  0  0  0
 23 24  1  0  0  0  0
 23 19  2  0  0  0  0
 24 17  1  0  0  0  0
 26 29  1  0  0  0  0
 26 27  1  0  0  0  0
 28 26  1  0  0  0  0
 30  1  1  0  0  0  0
 30 31  2  0  0  0  0
 32 30  2  0  0  0  0
 33 42  1  0  0  0  0
 33 38  1  0  0  0  0
 34 33  2  0  0  0  0
 35 34  1  0  0  0  0
 35 36  2  0  0  0  0
 36 37  1  0  0  0  0
 37 38  2  0  0  0  0
 37 30  1  0  0  0  0
 38 41  1  0  0  0  0
 39 34  1  0  0  0  0
 40 35  1  0  0  0  0
 42 44  1  0  0  0  0
 42 43  1  0  0  0  0
 45 42  1  0  0  0  0
 46 47  1  0  0  0  0
 46 36  1  0  0  0  0
 46 49  1  0  0  0  0
 48 46  1  0  0  0  0
M  END
>  <MODEL>
8

>  <REMARK>
 VINA RESULT:    -6.488      6.613     10.126
 INTER + INTRA:          -6.057
 INTER:                  -7.062
 INTRA:                   1.005
 UNBOUND:                 2.138
  Name = 
  6 active torsions:
  status: ('A' for Active; 'I' for Inactive)
    1  A    between atoms: C_1  and  C_2
    2  A    between atoms: C_5  and  C_6
    3  A    between atoms: C_7  and  S_8
    4  A    between atoms: S_8  and  N_11
    5  A    between atoms: C_15  and  C_17
    6  A    between atoms: C_20  and  C_21
                            x       y       z     vdW  Elec       q    Type
                         _______ _______ _______ _____ _____    ______ ____

>  <TORSDO>
F 6

$$$$
=
 OpenBabel07192307433D

 49 52  0  0  0  0  0  0  0  0999 V2000
   -0.7930   11.7940   20.0410 N   0  0  0  0  0  0  0  0  0  0  0  0
    0.1600   12.2630   18.9660 C   0  0  0  0  0  0  0  0  0  0  0  0
    0.2330   11.2870   17.7830 C   0  0  0  0  0  0  0  0  0  0  0  0
    0.4220    9.9190   18.2620 N   0  0  0  0  0  0  0  0  0  0  0  0
    1.7370    9.4370   18.3400 C   0  0  0  0  0  0  0  0  0  0  0  0
    2.6850   10.1650   18.0390 O   0  0  0  0  0  0  0  0  0  0  0  0
   -0.6360    9.4380   19.1660 C   0  0  0  0  0  0  0  0  0  0  0  0
   -1.5650   10.5710   19.6460 C   0  0  0  0  0  0  0  0  0  0  0  0
    1.1680   12.3880   19.3740 H   0  0  0  0  0  0  0  0  0  0  0  0
   -0.1760   13.2460   18.6200 H   0  0  0  0  0  0  0  0  0  0  0  0
    1.0360   11.5810   17.1000 H   0  0  0  0  0  0  0  0  0  0  0  0
   -0.6960   11.3080   17.2030 H   0  0  0  0  0  0  0  0  0  0  0  0
   -1.2310    8.6980   18.6210 H   0  0  0  0  0  0  0  0  0  0  0  0
   -0.1870    8.9470   20.0340 H   0  0  0  0  0  0  0  0  0  0  0  0
   -2.2040   10.2230   20.4650 H   0  0  0  0  0  0  0  0  0  0  0  0
   -2.2550   10.8620   18.8430 H   0  0  0  0  0  0  0  0  0  0  0  0
    1.9610    8.0720   18.7880 C   0  0  0  0  0  0  0  0  0  0  0  0
    2.1410    6.9460   17.9770 C   0  0  0  0  0  0  0  0  0  0  0  0
    2.2450    5.8260   18.7900 C   0  0  0  0  0  0  0  0  0  0  0  0
    2.4320    4.4640   18.6170 C   0  0  0  0  0  0  0  0  0  0  0  0
    2.4340    3.8620   19.8290 N   0  0  0  0  0  0  0  0  0  0  0  0
    2.2380    4.8930   20.7750 O   0  0  0  0  0  0  0  0  0  0  0  0
    2.1290    6.0540   20.1010 C   0  0  0  0  0  0  0  0  0  0  0  0
    1.8740    7.6490   20.4870 S   0  0  0  0  0  0  0  0  0  0  0  0
    2.1890    6.9880   16.8960 H   0  0  0  0  0  0  0  0  0  0  0  0
    2.6030    3.6680   17.3840 C   0  0  0  0  0  0  0  0  0  0  0  0
    2.0960    2.7030   17.4810 H   0  0  0  0  0  0  0  0  0  0  0  0
    3.6630    3.4830   17.1830 H   0  0  0  0  0  0  0  0  0  0  0  0
    2.1840    4.1850   16.5140 H   0  0  0  0  0  0  0  0  0  0  0  0
   -0.1280   11.6970   21.6170 S   0  0  0  0  0  0  0  0  0  0  0  0
    1.2170   12.2340   21.5420 O   0  0  0  0  0  0  0  0  0  0  0  0
   -0.3500   10.3570   22.1200 O   0  0  0  0  0  0  0  0  0  0  0  0
   -3.1210   13.1110   23.9550 C   0  0  0  0  0  0  0  0  0  0  0  0
   -2.8400   14.4760   24.0320 C   0  0  0  0  0  0  0  0  0  0  0  0
   -1.7220   15.0100   23.3830 C   0  0  0  0  0  0  0  0  0  0  0  0
   -0.8550   14.1950   22.6390 C   0  0  0  0  0  0  0  0  0  0  0  0
   -1.1500   12.8210   22.5540 C   0  0  0  0  0  0  0  0  0  0  0  0
   -2.2800   12.2880   23.1990 C   0  0  0  0  0  0  0  0  0  0  0  0
   -3.4940   15.1400   24.5950 H   0  0  0  0  0  0  0  0  0  0  0  0
   -1.5380   16.0800   23.4600 H   0  0  0  0  0  0  0  0  0  0  0  0
   -2.5080   11.2250   23.1160 H   0  0  0  0  0  0  0  0  0  0  0  0
   -4.3420   12.5490   24.6230 C   0  0  0  0  0  0  0  0  0  0  0  0
   -4.8770   11.8740   23.9480 H   0  0  0  0  0  0  0  0  0  0  0  0
   -4.0570   12.0000   25.5270 H   0  0  0  0  0  0  0  0  0  0  0  0
   -5.0410   13.3460   24.9030 H   0  0  0  0  0  0  0  0  0  0  0  0
    0.3120   14.8400   21.9410 C   0  0  0  0  0  0  0  0  0  0  0  0
    0.6100   15.7540   22.4600 H   0  0  0  0  0  0  0  0  0  0  0  0
    1.1810   14.1720   21.9260 H   0  0  0  0  0  0  0  0  0  0  0  0
    0.0770   15.0620   20.8970 H   0  0  0  0  0  0  0  0  0  0  0  0
  1 30  1  0  0  0  0
  2  9  1  0  0  0  0
  2  1  1  0  0  0  0
  3  4  1  0  0  0  0
  3  2  1  0  0  0  0
  4  5  1  0  0  0  0
  4  7  1  0  0  0  0
  5 17  1  0  0  0  0
  6  5  2  0  0  0  0
  7  8  1  0  0  0  0
  7 14  1  0  0  0  0
  8  1  1  0  0  0  0
  8 15  1  0  0  0  0
 10  2  1  0  0  0  0
 11  3  1  0  0  0  0
 12  3  1  0  0  0  0
 13  7  1  0  0  0  0
 16  8  1  0  0  0  0
 17 24  1  0  0  0  0
 18 17  2  0  0  0  0
 18 19  1  0  0  0  0
 19 23  2  0  0  0  0
 20 19  1  0  0  0  0
 20 21  2  0  0  0  0
 21 22  1  0  0  0  0
 23 24  1  0  0  0  0
 23 22  1  0  0  0  0
 25 18  1  0  0  0  0
 26 27  1  0  0  0  0
 26 20  1  0  0  0  0
 28 26  1  0  0  0  0
 29 26  1  0  0  0  0
 30 32  2  0  0  0  0
 30 37  1  0  0  0  0
 31 30  2  0  0  0  0
 33 34  1  0  0  0  0
 33 42  1  0  0  0  0
 34 39  1  0  0  0  0
 35 40  1  0  0  0  0
 35 34  2  0  0  0  0
 36 35  1  0  0  0  0
 37 36  2  0  0  0  0
 37 38  1  0  0  0  0
 38 33  2  0  0  0  0
 41 38  1  0  0  0  0
 42 45  1  0  0  0  0
 42 44  1  0  0  0  0
 43 42  1  0  0  0  0
 46 47  1  0  0  0  0
 46 36  1  0  0  0  0
 48 46  1  0  0  0  0
 49 46  1  0  0  0  0
M  END
>  <MODEL>
9

>  <REMARK>
 VINA RESULT:    -6.384      3.387      9.911
 INTER + INTRA:          -5.926
 INTER:                  -6.131
 INTRA:                   0.205
 UNBOUND:                 2.138
  Name = 
  6 active torsions:
  status: ('A' for Active; 'I' for Inactive)
    1  A    between atoms: C_1  and  C_2
    2  A    between atoms: C_5  and  C_6
    3  A    between atoms: C_7  and  S_8
    4  A    between atoms: S_8  and  N_11
    5  A    between atoms: C_15  and  C_17
    6  A    between atoms: C_20  and  C_21
                            x       y       z     vdW  Elec       q    Type
                         _______ _______ _______ _____ _____    ______ ____

>  <TORSDO>
F 6

$$$$
=
 OpenBabel07192307433D

 49 52  0  0  0  0  0  0  0  0999 V2000
    0.3830   10.7440   18.4690 N   0  0  0  0  0  0  0  0  0  0  0  0
   -0.8310   10.2420   17.7220 C   0  0  0  0  0  0  0  0  0  0  0  0
   -1.7750   11.3800   17.3090 C   0  0  0  0  0  0  0  0  0  0  0  0
   -2.0340   12.2640   18.4440 N   0  0  0  0  0  0  0  0  0  0  0  0
   -3.1800   12.0100   19.2120 C   0  0  0  0  0  0  0  0  0  0  0  0
   -3.9110   11.0550   18.9430 O   0  0  0  0  0  0  0  0  0  0  0  0
   -0.8290   12.8790   19.0250 C   0  0  0  0  0  0  0  0  0  0  0  0
    0.4720   12.2400   18.5030 C   0  0  0  0  0  0  0  0  0  0  0  0
   -1.3930    9.5310   18.3350 H   0  0  0  0  0  0  0  0  0  0  0  0
   -0.4850    9.7030   16.8340 H   0  0  0  0  0  0  0  0  0  0  0  0
   -2.7070   10.9700   16.9060 H   0  0  0  0  0  0  0  0  0  0  0  0
   -1.3280   11.9870   16.5130 H   0  0  0  0  0  0  0  0  0  0  0  0
   -0.8350   13.9410   18.7590 H   0  0  0  0  0  0  0  0  0  0  0  0
   -0.8610   12.7970   20.1160 H   0  0  0  0  0  0  0  0  0  0  0  0
    1.3300   12.5730   19.0980 H   0  0  0  0  0  0  0  0  0  0  0  0
    0.6790   12.5810   17.4790 H   0  0  0  0  0  0  0  0  0  0  0  0
   -3.4830   12.8840   20.3340 C   0  0  0  0  0  0  0  0  0  0  0  0
   -2.6620   13.1410   21.4380 C   0  0  0  0  0  0  0  0  0  0  0  0
   -3.3480   13.9650   22.3180 C   0  0  0  0  0  0  0  0  0  0  0  0
   -3.1020   14.5670   23.5420 C   0  0  0  0  0  0  0  0  0  0  0  0
   -4.1970   15.2670   23.9180 N   0  0  0  0  0  0  0  0  0  0  0  0
   -5.1470   15.0850   22.8870 O   0  0  0  0  0  0  0  0  0  0  0  0
   -4.5890   14.2950   21.9500 C   0  0  0  0  0  0  0  0  0  0  0  0
   -5.0590   13.6330   20.5010 S   0  0  0  0  0  0  0  0  0  0  0  0
   -1.6600   12.7440   21.5450 H   0  0  0  0  0  0  0  0  0  0  0  0
   -1.9040   14.5260   24.4070 C   0  0  0  0  0  0  0  0  0  0  0  0
   -2.1640   14.1430   25.3990 H   0  0  0  0  0  0  0  0  0  0  0  0
   -1.4750   15.5270   24.5250 H   0  0  0  0  0  0  0  0  0  0  0  0
   -1.1290   13.8790   23.9860 H   0  0  0  0  0  0  0  0  0  0  0  0
    0.6580   10.0120   19.9940 S   0  0  0  0  0  0  0  0  0  0  0  0
   -0.6360    9.6040   20.5060 O   0  0  0  0  0  0  0  0  0  0  0  0
    1.5040   10.8930   20.7720 O   0  0  0  0  0  0  0  0  0  0  0  0
    3.1000    7.4740   17.9900 C   0  0  0  0  0  0  0  0  0  0  0  0
    3.1020    6.3360   18.8000 C   0  0  0  0  0  0  0  0  0  0  0  0
    2.3670    6.3080   19.9890 C   0  0  0  0  0  0  0  0  0  0  0  0
    1.6110    7.4160   20.4030 C   0  0  0  0  0  0  0  0  0  0  0  0
    1.6020    8.5560   19.5760 C   0  0  0  0  0  0  0  0  0  0  0  0
    2.3330    8.5780   18.3750 C   0  0  0  0  0  0  0  0  0  0  0  0
    3.6720    5.4560   18.5080 H   0  0  0  0  0  0  0  0  0  0  0  0
    2.3870    5.4020   20.5920 H   0  0  0  0  0  0  0  0  0  0  0  0
    2.3100    9.4600   17.7350 H   0  0  0  0  0  0  0  0  0  0  0  0
    3.8610    7.4840   16.6960 C   0  0  0  0  0  0  0  0  0  0  0  0
    3.6350    8.3880   16.1220 H   0  0  0  0  0  0  0  0  0  0  0  0
    4.9380    7.4460   16.8940 H   0  0  0  0  0  0  0  0  0  0  0  0
    3.5880    6.6270   16.0710 H   0  0  0  0  0  0  0  0  0  0  0  0
    0.8190    7.3080   21.6780 C   0  0  0  0  0  0  0  0  0  0  0  0
    0.1610    6.4350   21.6470 H   0  0  0  0  0  0  0  0  0  0  0  0
    1.4800    7.1910   22.5450 H   0  0  0  0  0  0  0  0  0  0  0  0
    0.2320    8.2130   21.8590 H   0  0  0  0  0  0  0  0  0  0  0  0
  1  8  1  0  0  0  0
  1 30  1  0  0  0  0
  2  9  1  0  0  0  0
  2  1  1  0  0  0  0
  3  2  1  0  0  0  0
  3  4  1  0  0  0  0
  4  7  1  0  0  0  0
  4  5  1  0  0  0  0
  5 17  1  0  0  0  0
  6  5  2  0  0  0  0
  7 14  1  0  0  0  0
  8  7  1  0  0  0  0
  8 15  1  0  0  0  0
 10  2  1  0  0  0  0
 11  3  1  0  0  0  0
 12  3  1  0  0  0  0
 13  7  1  0  0  0  0
 16  8  1  0  0  0  0
 17 24  1  0  0  0  0
 17 18  2  0  0  0  0
 18 25  1  0  0  0  0
 18 19  1  0  0  0  0
 19 20  1  0  0  0  0
 20 21  2  0  0  0  0
 20 26  1  0  0  0  0
 22 21  1  0  0  0  0
 23 19  2  0  0  0  0
 23 22  1  0  0  0  0
 24 23  1  0  0  0  0
 26 28  1  0  0  0  0
 26 27  1  0  0  0  0
 29 26  1  0  0  0  0
 30 31  2  0  0  0  0
 30 32  2  0  0  0  0
 33 38  2  0  0  0  0
 33 34  1  0  0  0  0
 34 35  2  0  0  0  0
 35 36  1  0  0  0  0
 35 40  1  0  0  0  0
 36 46  1  0  0  0  0
 37 30  1  0  0  0  0
 37 36  2  0  0  0  0
 38 37  1  0  0  0  0
 39 34  1  0  0  0  0
 41 38  1  0  0  0  0
 42 44  1  0  0  0  0
 42 33  1  0  0  0  0
 43 42  1  0  0  0  0
 45 42  1  0  0  0  0
 46 49  1  0  0  0  0
 46 48  1  0  0  0  0
 47 46  1  0  0  0  0
M  END
>  <MODEL>
10

>  <REMARK>
 VINA RESULT:    -6.320      4.400      7.615
 INTER + INTRA:          -5.845
 INTER:                  -5.788
 INTRA:                  -0.058
 UNBOUND:                 2.138
  Name = 
  6 active torsions:
  status: ('A' for Active; 'I' for Inactive)
    1  A    between atoms: C_1  and  C_2
    2  A    between atoms: C_5  and  C_6
    3  A    between atoms: C_7  and  S_8
    4  A    between atoms: S_8  and  N_11
    5  A    between atoms: C_15  and  C_17
    6  A    between atoms: C_20  and  C_21
                            x       y       z     vdW  Elec       q    Type
                         _______ _______ _______ _____ _____    ______ ____

>  <TORSDO>
F 6

$$$$
=
 OpenBabel07192307433D

 49 52  0  0  0  0  0  0  0  0999 V2000
   -1.6070   12.3650   20.0850 N   0  0  0  0  0  0  0  0  0  0  0  0
   -0.6340   13.1460   19.2320 C   0  0  0  0  0  0  0  0  0  0  0  0
   -0.2480   12.3960   17.9490 C   0  0  0  0  0  0  0  0  0  0  0  0
    0.1250   11.0170   18.2580 N   0  0  0  0  0  0  0  0  0  0  0  0
    1.4870   10.7450   18.4560 C   0  0  0  0  0  0  0  0  0  0  0  0
    2.3180   11.6530   18.3970 O   0  0  0  0  0  0  0  0  0  0  0  0
   -0.9290   10.2350   18.9260 C   0  0  0  0  0  0  0  0  0  0  0  0
   -2.0950   11.1140   19.4190 C   0  0  0  0  0  0  0  0  0  0  0  0
    0.2800   13.3640   19.7930 H   0  0  0  0  0  0  0  0  0  0  0  0
   -1.0970   14.1050   18.9800 H   0  0  0  0  0  0  0  0  0  0  0  0
    0.5640   12.9200   17.4350 H   0  0  0  0  0  0  0  0  0  0  0  0
   -1.0910   12.3620   17.2510 H   0  0  0  0  0  0  0  0  0  0  0  0
   -1.3130    9.5070   18.2050 H   0  0  0  0  0  0  0  0  0  0  0  0
   -0.5040    9.6890   19.7740 H   0  0  0  0  0  0  0  0  0  0  0  0
   -2.7530   10.5430   20.0820 H   0  0  0  0  0  0  0  0  0  0  0  0
   -2.7270   11.4160   18.5730 H   0  0  0  0  0  0  0  0  0  0  0  0
    1.8970    9.3790   18.7400 C   0  0  0  0  0  0  0  0  0  0  0  0
    2.6190    8.5310   17.8920 C   0  0  0  0  0  0  0  0  0  0  0  0
    2.7370    7.2900   18.5030 C   0  0  0  0  0  0  0  0  0  0  0  0
    3.3180    6.0680   18.2060 C   0  0  0  0  0  0  0  0  0  0  0  0
    3.0790    5.2070   19.2220 N   0  0  0  0  0  0  0  0  0  0  0  0
    2.3220    5.9300   20.1730 O   0  0  0  0  0  0  0  0  0  0  0  0
    2.1430    7.1750   19.6930 C   0  0  0  0  0  0  0  0  0  0  0  0
    1.3710    8.5580   20.1960 S   0  0  0  0  0  0  0  0  0  0  0  0
    3.0070    8.8350   16.9280 H   0  0  0  0  0  0  0  0  0  0  0  0
    4.0830    5.6320   17.0190 C   0  0  0  0  0  0  0  0  0  0  0  0
    5.1530    5.6040   17.2470 H   0  0  0  0  0  0  0  0  0  0  0  0
    3.9270    6.3200   16.1810 H   0  0  0  0  0  0  0  0  0  0  0  0
    3.7790    4.6330   16.6910 H   0  0  0  0  0  0  0  0  0  0  0  0
   -1.1250   12.1250   21.7110 S   0  0  0  0  0  0  0  0  0  0  0  0
    0.2130   12.6680   21.8400 O   0  0  0  0  0  0  0  0  0  0  0  0
   -1.3880   10.7450   22.0610 O   0  0  0  0  0  0  0  0  0  0  0  0
   -2.6120   14.6150   24.5420 C   0  0  0  0  0  0  0  0  0  0  0  0
   -3.9420   14.7800   24.1470 C   0  0  0  0  0  0  0  0  0  0  0  0
   -4.4260   14.1480   22.9980 C   0  0  0  0  0  0  0  0  0  0  0  0
   -3.5960   13.3320   22.2120 C   0  0  0  0  0  0  0  0  0  0  0  0
   -2.2600   13.1580   22.6230 C   0  0  0  0  0  0  0  0  0  0  0  0
   -1.7790   13.7870   23.7840 C   0  0  0  0  0  0  0  0  0  0  0  0
   -4.6150   15.4000   24.7350 H   0  0  0  0  0  0  0  0  0  0  0  0
   -5.4690   14.2940   22.7240 H   0  0  0  0  0  0  0  0  0  0  0  0
   -0.7470   13.6350   24.1010 H   0  0  0  0  0  0  0  0  0  0  0  0
   -2.1080   15.2670   25.7970 C   0  0  0  0  0  0  0  0  0  0  0  0
   -1.9080   14.5170   26.5680 H   0  0  0  0  0  0  0  0  0  0  0  0
   -1.1860   15.8190   25.5870 H   0  0  0  0  0  0  0  0  0  0  0  0
   -2.8500   15.9620   26.2050 H   0  0  0  0  0  0  0  0  0  0  0  0
   -4.1900   12.6560   21.0050 C   0  0  0  0  0  0  0  0  0  0  0  0
   -4.1070   11.5700   21.0970 H   0  0  0  0  0  0  0  0  0  0  0  0
   -5.2540   12.8970   20.9020 H   0  0  0  0  0  0  0  0  0  0  0  0
   -3.7070   12.9920   20.0840 H   0  0  0  0  0  0  0  0  0  0  0  0
  1 30  1  0  0  0  0
  2  9  1  0  0  0  0
  2  1  1  0  0  0  0
  3  4  1  0  0  0  0
  3  2  1  0  0  0  0
  4  5  1  0  0  0  0
  4  7  1  0  0  0  0
  5 17  1  0  0  0  0
  6  5  2  0  0  0  0
  7  8  1  0  0  0  0
  7 14  1  0  0  0  0
  8 15  1  0  0  0  0
  8  1  1  0  0  0  0
 10  2  1  0  0  0  0
 11  3  1  0  0  0  0
 12  3  1  0  0  0  0
 13  7  1  0  0  0  0
 16  8  1  0  0  0  0
 17 24  1  0  0  0  0
 18 19  1  0  0  0  0
 18 17  2  0  0  0  0
 19 23  2  0  0  0  0
 20 19  1  0  0  0  0
 20 21  2  0  0  0  0
 21 22  1  0  0  0  0
 23 22  1  0  0  0  0
 23 24  1  0  0  0  0
 25 18  1  0  0  0  0
 26 27  1  0  0  0  0
 26 20  1  0  0  0  0
 28 26  1  0  0  0  0
 29 26  1  0  0  0  0
 30 31  2  0  0  0  0
 30 32  2  0  0  0  0
 30 37  1  0  0  0  0
 33 42  1  0  0  0  0
 34 33  1  0  0  0  0
 34 39  1  0  0  0  0
 35 34  2  0  0  0  0
 36 37  2  0  0  0  0
 36 35  1  0  0  0  0
 37 38  1  0  0  0  0
 38 41  1  0  0  0  0
 38 33  2  0  0  0  0
 40 35  1  0  0  0  0
 42 45  1  0  0  0  0
 42 43  1  0  0  0  0
 44 42  1  0  0  0  0
 46 47  1  0  0  0  0
 46 36  1  0  0  0  0
 48 46  1  0  0  0  0
 49 46  1  0  0  0  0
M  END
>  <MODEL>
11

>  <REMARK>
 VINA RESULT:    -6.309      3.605     10.646
 INTER + INTRA:          -5.830
 INTER:                  -6.870
 INTRA:                   1.040
 UNBOUND:                 2.138
  Name = 
  6 active torsions:
  status: ('A' for Active; 'I' for Inactive)
    1  A    between atoms: C_1  and  C_2
    2  A    between atoms: C_5  and  C_6
    3  A    between atoms: C_7  and  S_8
    4  A    between atoms: S_8  and  N_11
    5  A    between atoms: C_15  and  C_17
    6  A    between atoms: C_20  and  C_21
                            x       y       z     vdW  Elec       q    Type
                         _______ _______ _______ _____ _____    ______ ____

>  <TORSDO>
F 6

$$$$
=
 OpenBabel07192307433D

 49 52  0  0  0  0  0  0  0  0999 V2000
    1.7840   11.2080   19.3380 N   0  0  0  0  0  0  0  0  0  0  0  0
    1.7800   12.4640   18.4970 C   0  0  0  0  0  0  0  0  0  0  0  0
    1.6000   13.7340   19.3410 C   0  0  0  0  0  0  0  0  0  0  0  0
    0.4830   13.5740   20.2700 N   0  0  0  0  0  0  0  0  0  0  0  0
   -0.7720   14.0460   19.8570 C   0  0  0  0  0  0  0  0  0  0  0  0
   -0.9130   14.5450   18.7390 O   0  0  0  0  0  0  0  0  0  0  0  0
    0.6200   12.4410   21.2010 C   0  0  0  0  0  0  0  0  0  0  0  0
    1.7690   11.4910   20.8110 C   0  0  0  0  0  0  0  0  0  0  0  0
    0.9770   12.4260   17.7540 H   0  0  0  0  0  0  0  0  0  0  0  0
    2.7270   12.5090   17.9500 H   0  0  0  0  0  0  0  0  0  0  0  0
    1.4540   14.6020   18.6910 H   0  0  0  0  0  0  0  0  0  0  0  0
    2.4980   13.9340   19.9360 H   0  0  0  0  0  0  0  0  0  0  0  0
    0.8190   12.8480   22.1970 H   0  0  0  0  0  0  0  0  0  0  0  0
   -0.3170   11.8780   21.2390 H   0  0  0  0  0  0  0  0  0  0  0  0
    1.7160   10.5640   21.3920 H   0  0  0  0  0  0  0  0  0  0  0  0
    2.7380   11.9400   21.0690 H   0  0  0  0  0  0  0  0  0  0  0  0
   -1.9010   13.9270   20.7660 C   0  0  0  0  0  0  0  0  0  0  0  0
   -2.0480   14.5650   22.0020 C   0  0  0  0  0  0  0  0  0  0  0  0
   -3.2270   14.1260   22.5900 C   0  0  0  0  0  0  0  0  0  0  0  0
   -3.9240   14.3680   23.7620 C   0  0  0  0  0  0  0  0  0  0  0  0
   -5.0420   13.6060   23.7770 N   0  0  0  0  0  0  0  0  0  0  0  0
   -5.0250   12.8690   22.5700 O   0  0  0  0  0  0  0  0  0  0  0  0
   -3.9140   13.2170   21.8930 C   0  0  0  0  0  0  0  0  0  0  0  0
   -3.2000   12.7910   20.4550 S   0  0  0  0  0  0  0  0  0  0  0  0
   -1.3370   15.2800   22.3960 H   0  0  0  0  0  0  0  0  0  0  0  0
   -3.6150   15.2670   24.8950 C   0  0  0  0  0  0  0  0  0  0  0  0
   -2.7900   15.9370   24.6320 H   0  0  0  0  0  0  0  0  0  0  0  0
   -3.3240   14.6910   25.7800 H   0  0  0  0  0  0  0  0  0  0  0  0
   -4.4790   15.8810   25.1660 H   0  0  0  0  0  0  0  0  0  0  0  0
    0.6560   10.0080   18.8660 S   0  0  0  0  0  0  0  0  0  0  0  0
    0.4820   10.1320   17.4320 O   0  0  0  0  0  0  0  0  0  0  0  0
   -0.4890   10.0920   19.7490 O   0  0  0  0  0  0  0  0  0  0  0  0
    3.0750    6.7860   18.4270 C   0  0  0  0  0  0  0  0  0  0  0  0
    2.9100    6.1030   19.6340 C   0  0  0  0  0  0  0  0  0  0  0  0
    2.0650    6.6080   20.6270 C   0  0  0  0  0  0  0  0  0  0  0  0
    1.3610    7.8090   20.4420 C   0  0  0  0  0  0  0  0  0  0  0  0
    1.5210    8.4860   19.2170 C   0  0  0  0  0  0  0  0  0  0  0  0
    2.3630    7.9710   18.2160 C   0  0  0  0  0  0  0  0  0  0  0  0
    3.4350    5.1670   19.8100 H   0  0  0  0  0  0  0  0  0  0  0  0
    1.9560    6.0460   21.5520 H   0  0  0  0  0  0  0  0  0  0  0  0
    2.4700    8.4950   17.2670 H   0  0  0  0  0  0  0  0  0  0  0  0
    3.9550    6.2200   17.3500 C   0  0  0  0  0  0  0  0  0  0  0  0
    4.8660    5.7920   17.7810 H   0  0  0  0  0  0  0  0  0  0  0  0
    3.4190    5.4400   16.7990 H   0  0  0  0  0  0  0  0  0  0  0  0
    4.2660    6.9990   16.6450 H   0  0  0  0  0  0  0  0  0  0  0  0
    0.4440    8.2790   21.5390 C   0  0  0  0  0  0  0  0  0  0  0  0
   -0.5950    8.2660   21.2000 H   0  0  0  0  0  0  0  0  0  0  0  0
    0.5120    7.6260   22.4170 H   0  0  0  0  0  0  0  0  0  0  0  0
    0.7140    9.2820   21.8790 H   0  0  0  0  0  0  0  0  0  0  0  0
  1  8  1  0  0  0  0
  2  1  1  0  0  0  0
  2  3  1  0  0  0  0
  3 12  1  0  0  0  0
  3  4  1  0  0  0  0
  4  7  1  0  0  0  0
  5  4  1  0  0  0  0
  5 17  1  0  0  0  0
  6  5  2  0  0  0  0
  7 14  1  0  0  0  0
  7 13  1  0  0  0  0
  8 16  1  0  0  0  0
  8  7  1  0  0  0  0
  8 15  1  0  0  0  0
  9  2  1  0  0  0  0
 10  2  1  0  0  0  0
 11  3  1  0  0  0  0
 17 18  2  0  0  0  0
 18 25  1  0  0  0  0
 18 19  1  0  0  0  0
 19 20  1  0  0  0  0
 20 21  2  0  0  0  0
 20 26  1  0  0  0  0
 22 21  1  0  0  0  0
 23 22  1  0  0  0  0
 23 19  2  0  0  0  0
 24 17  1  0  0  0  0
 24 23  1  0  0  0  0
 26 29  1  0  0  0  0
 26 28  1  0  0  0  0
 27 26  1  0  0  0  0
 30 37  1  0  0  0  0
 30  1  1  0  0  0  0
 30 32  2  0  0  0  0
 31 30  2  0  0  0  0
 33 34  1  0  0  0  0
 34 39  1  0  0  0  0
 34 35  2  0  0  0  0
 35 40  1  0  0  0  0
 36 35  1  0  0  0  0
 36 46  1  0  0  0  0
 37 36  2  0  0  0  0
 38 33  2  0  0  0  0
 38 37  1  0  0  0  0
 41 38  1  0  0  0  0
 42 43  1  0  0  0  0
 42 33  1  0  0  0  0
 44 42  1  0  0  0  0
 45 42  1  0  0  0  0
 46 49  1  0  0  0  0
 46 48  1  0  0  0  0
 47 46  1  0  0  0  0
M  END
>  <MODEL>
12

>  <REMARK>
 VINA RESULT:    -6.265      4.261      7.777
 INTER + INTRA:          -5.775
 INTER:                  -6.001
 INTRA:                   0.226
 UNBOUND:                 2.138
  Name = 
  6 active torsions:
  status: ('A' for Active; 'I' for Inactive)
    1  A    between atoms: C_1  and  C_2
    2  A    between atoms: C_5  and  C_6
    3  A    between atoms: C_7  and  S_8
    4  A    between atoms: S_8  and  N_11
    5  A    between atoms: C_15  and  C_17
    6  A    between atoms: C_20  and  C_21
                            x       y       z     vdW  Elec       q    Type
                         _______ _______ _______ _____ _____    ______ ____

>  <TORSDO>
F 6

$$$$
=
 OpenBabel07192307433D

 49 52  0  0  0  0  0  0  0  0999 V2000
   -0.1110   11.7010   19.2310 N   0  0  0  0  0  0  0  0  0  0  0  0
    0.0470   11.6290   20.7320 C   0  0  0  0  0  0  0  0  0  0  0  0
    1.4030   11.0410   21.1500 C   0  0  0  0  0  0  0  0  0  0  0  0
    1.6730    9.8090   20.4120 N   0  0  0  0  0  0  0  0  0  0  0  0
    1.3110    8.5980   21.0220 C   0  0  0  0  0  0  0  0  0  0  0  0
    0.7600    8.5970   22.1240 O   0  0  0  0  0  0  0  0  0  0  0  0
    1.6930    9.9660   18.9480 C   0  0  0  0  0  0  0  0  0  0  0  0
    1.1410   11.3310   18.4920 C   0  0  0  0  0  0  0  0  0  0  0  0
   -0.7450   11.0170   21.1740 H   0  0  0  0  0  0  0  0  0  0  0  0
   -0.0610   12.6410   21.1340 H   0  0  0  0  0  0  0  0  0  0  0  0
    1.4220   10.8680   22.2310 H   0  0  0  0  0  0  0  0  0  0  0  0
    2.2150   11.7430   20.9300 H   0  0  0  0  0  0  0  0  0  0  0  0
    2.7320    9.8750   18.6160 H   0  0  0  0  0  0  0  0  0  0  0  0
    1.1110    9.1660   18.4820 H   0  0  0  0  0  0  0  0  0  0  0  0
    0.9790   11.3380   17.4090 H   0  0  0  0  0  0  0  0  0  0  0  0
    1.8790   12.1220   18.6810 H   0  0  0  0  0  0  0  0  0  0  0  0
    1.5880    7.3510   20.3270 C   0  0  0  0  0  0  0  0  0  0  0  0
    1.3000    6.0600   20.7840 C   0  0  0  0  0  0  0  0  0  0  0  0
    1.7930    5.1450   19.8640 C   0  0  0  0  0  0  0  0  0  0  0  0
    1.8270    3.7660   19.7270 C   0  0  0  0  0  0  0  0  0  0  0  0
    2.4810    3.4520   18.5850 N   0  0  0  0  0  0  0  0  0  0  0  0
    2.8620    4.6830   18.0050 O   0  0  0  0  0  0  0  0  0  0  0  0
    2.4260    5.6690   18.8120 C   0  0  0  0  0  0  0  0  0  0  0  0
    2.4980    7.3290   18.8300 S   0  0  0  0  0  0  0  0  0  0  0  0
    0.7730    5.8540   21.7070 H   0  0  0  0  0  0  0  0  0  0  0  0
    1.2950    2.7020   20.6040 C   0  0  0  0  0  0  0  0  0  0  0  0
    1.7120    1.7310   20.3180 H   0  0  0  0  0  0  0  0  0  0  0  0
    0.2040    2.6450   20.5280 H   0  0  0  0  0  0  0  0  0  0  0  0
    1.5480    2.8840   21.6530 H   0  0  0  0  0  0  0  0  0  0  0  0
   -1.5160   10.9440   18.6070 S   0  0  0  0  0  0  0  0  0  0  0  0
   -1.5850    9.6240   19.2020 O   0  0  0  0  0  0  0  0  0  0  0  0
   -1.5070   11.0940   17.1670 O   0  0  0  0  0  0  0  0  0  0  0  0
   -3.4930   13.7100   20.8120 C   0  0  0  0  0  0  0  0  0  0  0  0
   -4.8150   13.5610   20.3880 C   0  0  0  0  0  0  0  0  0  0  0  0
   -5.1470   12.6210   19.4080 C   0  0  0  0  0  0  0  0  0  0  0  0
   -4.1670   11.8030   18.8240 C   0  0  0  0  0  0  0  0  0  0  0  0
   -2.8370   11.9480   19.2650 C   0  0  0  0  0  0  0  0  0  0  0  0
   -2.5080   12.8870   20.2580 C   0  0  0  0  0  0  0  0  0  0  0  0
   -5.6030   14.1740   20.8230 H   0  0  0  0  0  0  0  0  0  0  0  0
   -6.1890   12.5280   19.1070 H   0  0  0  0  0  0  0  0  0  0  0  0
   -1.4780   12.9820   20.6020 H   0  0  0  0  0  0  0  0  0  0  0  0
   -3.1490   14.6960   21.8910 C   0  0  0  0  0  0  0  0  0  0  0  0
   -3.8460   14.6090   22.7300 H   0  0  0  0  0  0  0  0  0  0  0  0
   -2.1300   14.5160   22.2520 H   0  0  0  0  0  0  0  0  0  0  0  0
   -3.2150   15.7250   21.5200 H   0  0  0  0  0  0  0  0  0  0  0  0
   -4.5970   10.7900   17.7970 C   0  0  0  0  0  0  0  0  0  0  0  0
   -5.6860   10.6930   17.7900 H   0  0  0  0  0  0  0  0  0  0  0  0
   -4.2870   11.0930   16.7900 H   0  0  0  0  0  0  0  0  0  0  0  0
   -4.1350    9.8160   17.9810 H   0  0  0  0  0  0  0  0  0  0  0  0
  1  2  1  0  0  0  0
  2 10  1  0  0  0  0
  2  3  1  0  0  0  0
  2  9  1  0  0  0  0
  3 11  1  0  0  0  0
  4  5  1  0  0  0  0
  4  3  1  0  0  0  0
  5  6  2  0  0  0  0
  7  4  1  0  0  0  0
  8 16  1  0  0  0  0
  8  7  1  0  0  0  0
  8  1  1  0  0  0  0
 12  3  1  0  0  0  0
 13  7  1  0  0  0  0
 14  7  1  0  0  0  0
 15  8  1  0  0  0  0
 17 18  2  0  0  0  0
 17  5  1  0  0  0  0
 18 25  1  0  0  0  0
 19 18  1  0  0  0  0
 20 19  1  0  0  0  0
 20 26  1  0  0  0  0
 21 20  2  0  0  0  0
 22 21  1  0  0  0  0
 22 23  1  0  0  0  0
 23 24  1  0  0  0  0
 23 19  2  0  0  0  0
 24 17  1  0  0  0  0
 26 29  1  0  0  0  0
 27 26  1  0  0  0  0
 28 26  1  0  0  0  0
 30 31  2  0  0  0  0
 30  1  1  0  0  0  0
 30 37  1  0  0  0  0
 32 30  2  0  0  0  0
 33 42  1  0  0  0  0
 34 33  1  0  0  0  0
 34 39  1  0  0  0  0
 35 34  2  0  0  0  0
 36 37  2  0  0  0  0
 36 35  1  0  0  0  0
 37 38  1  0  0  0  0
 38 41  1  0  0  0  0
 38 33  2  0  0  0  0
 40 35  1  0  0  0  0
 42 44  1  0  0  0  0
 42 43  1  0  0  0  0
 45 42  1  0  0  0  0
 46 49  1  0  0  0  0
 46 36  1  0  0  0  0
 47 46  1  0  0  0  0
 48 46  1  0  0  0  0
M  END
>  <MODEL>
13

>  <REMARK>
 VINA RESULT:    -6.127      3.631      9.487
 INTER + INTRA:          -5.600
 INTER:                  -6.722
 INTRA:                   1.122
 UNBOUND:                 2.138
  Name = 
  6 active torsions:
  status: ('A' for Active; 'I' for Inactive)
    1  A    between atoms: C_1  and  C_2
    2  A    between atoms: C_5  and  C_6
    3  A    between atoms: C_7  and  S_8
    4  A    between atoms: S_8  and  N_11
    5  A    between atoms: C_15  and  C_17
    6  A    between atoms: C_20  and  C_21
                            x       y       z     vdW  Elec       q    Type
                         _______ _______ _______ _____ _____    ______ ____

>  <TORSDO>
F 6

$$$$
=
 OpenBabel07192307433D

 49 52  0  0  0  0  0  0  0  0999 V2000
   -0.0760   12.6280   21.0430 N   0  0  0  0  0  0  0  0  0  0  0  0
   -0.8890   11.6560   21.8680 C   0  0  0  0  0  0  0  0  0  0  0  0
   -0.0170   10.5790   22.5290 C   0  0  0  0  0  0  0  0  0  0  0  0
    0.8950    9.9910   21.5500 N   0  0  0  0  0  0  0  0  0  0  0  0
    0.4790    8.8170   20.9040 C   0  0  0  0  0  0  0  0  0  0  0  0
   -0.6280    8.3330   21.1430 O   0  0  0  0  0  0  0  0  0  0  0  0
    1.8010   10.9550   20.9030 C   0  0  0  0  0  0  0  0  0  0  0  0
    1.4020   12.4180   21.1790 C   0  0  0  0  0  0  0  0  0  0  0  0
   -1.6410   11.1600   21.2470 H   0  0  0  0  0  0  0  0  0  0  0  0
   -1.4240   12.2260   22.6330 H   0  0  0  0  0  0  0  0  0  0  0  0
   -0.6490    9.8140   22.9910 H   0  0  0  0  0  0  0  0  0  0  0  0
    0.5920   11.0100   23.3310 H   0  0  0  0  0  0  0  0  0  0  0  0
    2.8080   10.7810   21.2940 H   0  0  0  0  0  0  0  0  0  0  0  0
    1.8160   10.7820   19.8230 H   0  0  0  0  0  0  0  0  0  0  0  0
    1.9610   13.0980   20.5280 H   0  0  0  0  0  0  0  0  0  0  0  0
    1.6810   12.7010   22.2030 H   0  0  0  0  0  0  0  0  0  0  0  0
    1.3720    8.1890   19.9420 C   0  0  0  0  0  0  0  0  0  0  0  0
    2.1320    7.0320   20.1410 C   0  0  0  0  0  0  0  0  0  0  0  0
    2.9080    6.8110   19.0120 C   0  0  0  0  0  0  0  0  0  0  0  0
    3.8320    5.8700   18.5870 C   0  0  0  0  0  0  0  0  0  0  0  0
    4.2710    6.2080   17.3520 N   0  0  0  0  0  0  0  0  0  0  0  0
    3.5910    7.4000   17.0120 O   0  0  0  0  0  0  0  0  0  0  0  0
    2.7850    7.7210   18.0420 C   0  0  0  0  0  0  0  0  0  0  0  0
    1.7220    8.9460   18.4010 S   0  0  0  0  0  0  0  0  0  0  0  0
    2.0890    6.4330   21.0430 H   0  0  0  0  0  0  0  0  0  0  0  0
    4.3540    4.6640   19.2630 C   0  0  0  0  0  0  0  0  0  0  0  0
    5.4480    4.6830   19.2830 H   0  0  0  0  0  0  0  0  0  0  0  0
    4.0330    3.7560   18.7420 H   0  0  0  0  0  0  0  0  0  0  0  0
    3.9970    4.5990   20.2960 H   0  0  0  0  0  0  0  0  0  0  0  0
   -0.5880   12.8140   19.4180 S   0  0  0  0  0  0  0  0  0  0  0  0
   -0.1180   11.6510   18.6910 O   0  0  0  0  0  0  0  0  0  0  0  0
   -0.2210   14.1440   18.9790 O   0  0  0  0  0  0  0  0  0  0  0  0
   -4.4270   11.6570   18.8300 C   0  0  0  0  0  0  0  0  0  0  0  0
   -5.1470   12.5350   19.6440 C   0  0  0  0  0  0  0  0  0  0  0  0
   -4.4850   13.5010   20.4070 C   0  0  0  0  0  0  0  0  0  0  0  0
   -3.0860   13.6180   20.3800 C   0  0  0  0  0  0  0  0  0  0  0  0
   -2.3670   12.7390   19.5470 C   0  0  0  0  0  0  0  0  0  0  0  0
   -3.0350   11.7750   18.7730 C   0  0  0  0  0  0  0  0  0  0  0  0
   -6.2330   12.4780   19.6850 H   0  0  0  0  0  0  0  0  0  0  0  0
   -5.0790   14.1730   21.0250 H   0  0  0  0  0  0  0  0  0  0  0  0
   -2.4700   11.1080   18.1210 H   0  0  0  0  0  0  0  0  0  0  0  0
   -5.1450   10.6460   17.9850 C   0  0  0  0  0  0  0  0  0  0  0  0
   -4.5790   10.4330   17.0720 H   0  0  0  0  0  0  0  0  0  0  0  0
   -5.2800    9.7150   18.5470 H   0  0  0  0  0  0  0  0  0  0  0  0
   -6.1290   11.0170   17.6770 H   0  0  0  0  0  0  0  0  0  0  0  0
   -2.4410   14.7010   21.2020 C   0  0  0  0  0  0  0  0  0  0  0  0
   -1.3570   14.6960   21.0570 H   0  0  0  0  0  0  0  0  0  0  0  0
   -2.8080   15.6910   20.9090 H   0  0  0  0  0  0  0  0  0  0  0  0
   -2.6760   14.5870   22.2640 H   0  0  0  0  0  0  0  0  0  0  0  0
  1  8  1  0  0  0  0
  1  2  1  0  0  0  0
  2  3  1  0  0  0  0
  2 10  1  0  0  0  0
  3 11  1  0  0  0  0
  3 12  1  0  0  0  0
  4  3  1  0  0  0  0
  5  6  2  0  0  0  0
  5  4  1  0  0  0  0
  7  8  1  0  0  0  0
  7 13  1  0  0  0  0
  7  4  1  0  0  0  0
  8 16  1  0  0  0  0
  9  2  1  0  0  0  0
 14  7  1  0  0  0  0
 15  8  1  0  0  0  0
 17 18  2  0  0  0  0
 17  5  1  0  0  0  0
 18 25  1  0  0  0  0
 19 18  1  0  0  0  0
 20 19  1  0  0  0  0
 20 26  1  0  0  0  0
 21 20  2  0  0  0  0
 22 21  1  0  0  0  0
 22 23  1  0  0  0  0
 23 24  1  0  0  0  0
 23 19  2  0  0  0  0
 24 17  1  0  0  0  0
 26 27  1  0  0  0  0
 26 29  1  0  0  0  0
 28 26  1  0  0  0  0
 30 37  1  0  0  0  0
 30  1  1  0  0  0  0
 31 30  2  0  0  0  0
 32 30  2  0  0  0  0
 33 34  1  0  0  0  0
 34 39  1  0  0  0  0
 34 35  2  0  0  0  0
 35 40  1  0  0  0  0
 36 35  1  0  0  0  0
 36 46  1  0  0  0  0
 37 36  2  0  0  0  0
 38 33  2  0  0  0  0
 38 37  1  0  0  0  0
 41 38  1  0  0  0  0
 42 44  1  0  0  0  0
 42 33  1  0  0  0  0
 43 42  1  0  0  0  0
 45 42  1  0  0  0  0
 46 49  1  0  0  0  0
 47 46  1  0  0  0  0
 48 46  1  0  0  0  0
M  END
>  <MODEL>
14

>  <REMARK>
 VINA RESULT:    -6.032      3.582      9.454
 INTER + INTRA:          -5.482
 INTER:                  -6.072
 INTRA:                   0.590
 UNBOUND:                 2.138
  Name = 
  6 active torsions:
  status: ('A' for Active; 'I' for Inactive)
    1  A    between atoms: C_1  and  C_2
    2  A    between atoms: C_5  and  C_6
    3  A    between atoms: C_7  and  S_8
    4  A    between atoms: S_8  and  N_11
    5  A    between atoms: C_15  and  C_17
    6  A    between atoms: C_20  and  C_21
                            x       y       z     vdW  Elec       q    Type
                         _______ _______ _______ _____ _____    ______ ____

>  <TORSDO>
F 6

$$$$
=
 OpenBabel07192307433D

 49 52  0  0  0  0  0  0  0  0999 V2000
    0.5910   11.3520   19.3050 N   0  0  0  0  0  0  0  0  0  0  0  0
    1.7820   11.4000   18.3770 C   0  0  0  0  0  0  0  0  0  0  0  0
    1.7490   10.2840   17.3230 C   0  0  0  0  0  0  0  0  0  0  0  0
    1.4730    8.9960   17.9550 N   0  0  0  0  0  0  0  0  0  0  0  0
    2.5740    8.2010   18.3090 C   0  0  0  0  0  0  0  0  0  0  0  0
    3.7220    8.6060   18.1140 O   0  0  0  0  0  0  0  0  0  0  0  0
    0.2030    8.9390   18.6980 C   0  0  0  0  0  0  0  0  0  0  0  0
   -0.4280   10.3310   18.8970 C   0  0  0  0  0  0  0  0  0  0  0  0
    2.7150   11.3130   18.9430 H   0  0  0  0  0  0  0  0  0  0  0  0
    1.7910   12.3780   17.8860 H   0  0  0  0  0  0  0  0  0  0  0  0
    2.6920   10.2600   16.7680 H   0  0  0  0  0  0  0  0  0  0  0  0
    0.9570   10.4670   16.5880 H   0  0  0  0  0  0  0  0  0  0  0  0
   -0.4900    8.3120   18.1280 H   0  0  0  0  0  0  0  0  0  0  0  0
    0.3660    8.4730   19.6750 H   0  0  0  0  0  0  0  0  0  0  0  0
   -1.2510   10.2810   19.6180 H   0  0  0  0  0  0  0  0  0  0  0  0
   -0.8850   10.6780   17.9600 H   0  0  0  0  0  0  0  0  0  0  0  0
    2.3370    6.9010   18.9170 C   0  0  0  0  0  0  0  0  0  0  0  0
    2.3230    5.6650   18.2630 C   0  0  0  0  0  0  0  0  0  0  0  0
    1.9840    4.6810   19.1820 C   0  0  0  0  0  0  0  0  0  0  0  0
    1.8110    3.3070   19.1750 C   0  0  0  0  0  0  0  0  0  0  0  0
    1.4560    2.9000   20.4160 N   0  0  0  0  0  0  0  0  0  0  0  0
    1.4080    4.0700   21.2080 O   0  0  0  0  0  0  0  0  0  0  0  0
    1.7320    5.1130   20.4200 C   0  0  0  0  0  0  0  0  0  0  0  0
    1.8720    6.7580   20.6000 S   0  0  0  0  0  0  0  0  0  0  0  0
    2.5500    5.5400   17.2110 H   0  0  0  0  0  0  0  0  0  0  0  0
    1.9450    2.3280   18.0750 C   0  0  0  0  0  0  0  0  0  0  0  0
    2.2290    1.3480   18.4720 H   0  0  0  0  0  0  0  0  0  0  0  0
    2.7120    2.6470   17.3610 H   0  0  0  0  0  0  0  0  0  0  0  0
    1.0050    2.2130   17.5260 H   0  0  0  0  0  0  0  0  0  0  0  0
    0.9670   11.3050   20.9760 S   0  0  0  0  0  0  0  0  0  0  0  0
    1.9710   12.3240   21.2120 O   0  0  0  0  0  0  0  0  0  0  0  0
    1.2270    9.9280   21.3420 O   0  0  0  0  0  0  0  0  0  0  0  0
   -2.3700   13.4370   21.8370 C   0  0  0  0  0  0  0  0  0  0  0  0
   -2.9460   12.7110   22.8810 C   0  0  0  0  0  0  0  0  0  0  0  0
   -2.3420   11.5400   23.3510 C   0  0  0  0  0  0  0  0  0  0  0  0
   -1.1460   11.0630   22.7900 C   0  0  0  0  0  0  0  0  0  0  0  0
   -0.5630   11.8070   21.7460 C   0  0  0  0  0  0  0  0  0  0  0  0
   -1.1670   12.9890   21.2830 C   0  0  0  0  0  0  0  0  0  0  0  0
   -3.8690   13.0540   23.3440 H   0  0  0  0  0  0  0  0  0  0  0  0
   -2.8150   11.0040   24.1710 H   0  0  0  0  0  0  0  0  0  0  0  0
   -0.7010   13.5650   20.4830 H   0  0  0  0  0  0  0  0  0  0  0  0
   -3.0030   14.7130   21.3620 C   0  0  0  0  0  0  0  0  0  0  0  0
   -3.0700   15.4390   22.1780 H   0  0  0  0  0  0  0  0  0  0  0  0
   -2.4120   15.1440   20.5470 H   0  0  0  0  0  0  0  0  0  0  0  0
   -4.0230   14.5360   21.0010 H   0  0  0  0  0  0  0  0  0  0  0  0
   -0.5340    9.8140   23.3640 C   0  0  0  0  0  0  0  0  0  0  0  0
   -1.2950    9.0400   23.4920 H   0  0  0  0  0  0  0  0  0  0  0  0
    0.2370    9.4100   22.6970 H   0  0  0  0  0  0  0  0  0  0  0  0
   -0.0400   10.0150   24.3180 H   0  0  0  0  0  0  0  0  0  0  0  0
  1 30  1  0  0  0  0
  2  9  1  0  0  0  0
  2  1  1  0  0  0  0
  3  4  1  0  0  0  0
  3  2  1  0  0  0  0
  4  5  1  0  0  0  0
  4  7  1  0  0  0  0
  5 17  1  0  0  0  0
  6  5  2  0  0  0  0
  7  8  1  0  0  0  0
  7 14  1  0  0  0  0
  8  1  1  0  0  0  0
  8 15  1  0  0  0  0
 10  2  1  0  0  0  0
 11  3  1  0  0  0  0
 12  3  1  0  0  0  0
 13  7  1  0  0  0  0
 16  8  1  0  0  0  0
 17 24  1  0  0  0  0
 18 17  2  0  0  0  0
 18 19  1  0  0  0  0
 19 23  2  0  0  0  0
 20 19  1  0  0  0  0
 20 21  2  0  0  0  0
 21 22  1  0  0  0  0
 23 24  1  0  0  0  0
 23 22  1  0  0  0  0
 25 18  1  0  0  0  0
 26 27  1  0  0  0  0
 26 20  1  0  0  0  0
 28 26  1  0  0  0  0
 29 26  1  0  0  0  0
 30 31  2  0  0  0  0
 30 32  2  0  0  0  0
 30 37  1  0  0  0  0
 33 34  1  0  0  0  0
 34 39  1  0  0  0  0
 34 35  2  0  0  0  0
 35 40  1  0  0  0  0
 36 35  1  0  0  0  0
 36 46  1  0  0  0  0
 37 36  2  0  0  0  0
 38 37  1  0  0  0  0
 38 33  2  0  0  0  0
 41 38  1  0  0  0  0
 42 33  1  0  0  0  0
 42 43  1  0  0  0  0
 44 42  1  0  0  0  0
 45 42  1  0  0  0  0
 46 47  1  0  0  0  0
 46 49  1  0  0  0  0
 48 46  1  0  0  0  0
M  END
>  <MODEL>
15

>  <REMARK>
 VINA RESULT:    -5.946      3.609      9.117
 INTER + INTRA:          -5.373
 INTER:                  -5.902
 INTRA:                   0.529
 UNBOUND:                 2.138
  Name = 
  6 active torsions:
  status: ('A' for Active; 'I' for Inactive)
    1  A    between atoms: C_1  and  C_2
    2  A    between atoms: C_5  and  C_6
    3  A    between atoms: C_7  and  S_8
    4  A    between atoms: S_8  and  N_11
    5  A    between atoms: C_15  and  C_17
    6  A    between atoms: C_20  and  C_21
                            x       y       z     vdW  Elec       q    Type
                         _______ _______ _______ _____ _____    ______ ____

>  <TORSDO>
F 6

$$$$
=
 OpenBabel07192307433D

 49 52  0  0  0  0  0  0  0  0999 V2000
    1.6050    8.1460   20.8010 N   0  0  0  0  0  0  0  0  0  0  0  0
    2.0390    9.5140   21.2750 C   0  0  0  0  0  0  0  0  0  0  0  0
    0.8750   10.3270   21.8610 C   0  0  0  0  0  0  0  0  0  0  0  0
   -0.2760   10.2890   20.9620 N   0  0  0  0  0  0  0  0  0  0  0  0
   -0.4130   11.3410   20.0440 C   0  0  0  0  0  0  0  0  0  0  0  0
    0.4320   12.2370   19.9930 O   0  0  0  0  0  0  0  0  0  0  0  0
   -0.7830    8.9370   20.6750 C   0  0  0  0  0  0  0  0  0  0  0  0
    0.1810    7.8310   21.1490 C   0  0  0  0  0  0  0  0  0  0  0  0
    2.4780   10.0850   20.4510 H   0  0  0  0  0  0  0  0  0  0  0  0
    2.8200    9.3800   22.0300 H   0  0  0  0  0  0  0  0  0  0  0  0
    1.1940   11.3560   22.0550 H   0  0  0  0  0  0  0  0  0  0  0  0
    0.5570    9.9100   22.8230 H   0  0  0  0  0  0  0  0  0  0  0  0
   -1.7390    8.8210   21.1950 H   0  0  0  0  0  0  0  0  0  0  0  0
   -0.9590    8.8270   19.6010 H   0  0  0  0  0  0  0  0  0  0  0  0
   -0.1200    6.8590   20.7450 H   0  0  0  0  0  0  0  0  0  0  0  0
    0.1260    7.7210   22.2410 H   0  0  0  0  0  0  0  0  0  0  0  0
   -1.5610   11.3500   19.1510 C   0  0  0  0  0  0  0  0  0  0  0  0
   -1.6030   10.8620   17.8410 C   0  0  0  0  0  0  0  0  0  0  0  0
   -2.8560   11.1300   17.3080 C   0  0  0  0  0  0  0  0  0  0  0  0
   -3.5140   10.9090   16.1080 C   0  0  0  0  0  0  0  0  0  0  0  0
   -4.7600   11.4290   16.1860 N   0  0  0  0  0  0  0  0  0  0  0  0
   -4.8660   11.9910   17.4790 O   0  0  0  0  0  0  0  0  0  0  0  0
   -3.6960   11.7860   18.1130 C   0  0  0  0  0  0  0  0  0  0  0  0
   -3.0520   12.1540   19.5990 S   0  0  0  0  0  0  0  0  0  0  0  0
   -0.7710   10.3600   17.3610 H   0  0  0  0  0  0  0  0  0  0  0  0
   -3.0540   10.2450   14.8700 C   0  0  0  0  0  0  0  0  0  0  0  0
   -3.5320   10.6990   13.9960 H   0  0  0  0  0  0  0  0  0  0  0  0
   -3.3020    9.1780   14.8850 H   0  0  0  0  0  0  0  0  0  0  0  0
   -1.9700   10.3340   14.7480 H   0  0  0  0  0  0  0  0  0  0  0  0
    2.0050    7.7740   19.1770 S   0  0  0  0  0  0  0  0  0  0  0  0
    3.1110    8.6340   18.8060 O   0  0  0  0  0  0  0  0  0  0  0  0
    0.7840    7.7810   18.3980 O   0  0  0  0  0  0  0  0  0  0  0  0
    2.4810    3.9570   20.4530 C   0  0  0  0  0  0  0  0  0  0  0  0
    3.4370    3.4490   19.5710 C   0  0  0  0  0  0  0  0  0  0  0  0
    3.9600    4.2490   18.5510 C   0  0  0  0  0  0  0  0  0  0  0  0
    3.5440    5.5790   18.3830 C   0  0  0  0  0  0  0  0  0  0  0  0
    2.5890    6.0910   19.2840 C   0  0  0  0  0  0  0  0  0  0  0  0
    2.0720    5.2870   20.3150 C   0  0  0  0  0  0  0  0  0  0  0  0
    3.7880    2.4240   19.6750 H   0  0  0  0  0  0  0  0  0  0  0  0
    4.7090    3.8210   17.8860 H   0  0  0  0  0  0  0  0  0  0  0  0
    1.3440    5.6960   21.0150 H   0  0  0  0  0  0  0  0  0  0  0  0
    1.9500    3.1050   21.5690 C   0  0  0  0  0  0  0  0  0  0  0  0
    0.8920    2.8730   21.4090 H   0  0  0  0  0  0  0  0  0  0  0  0
    2.5160    2.1690   21.6280 H   0  0  0  0  0  0  0  0  0  0  0  0
    2.0250    3.6230   22.5310 H   0  0  0  0  0  0  0  0  0  0  0  0
    4.1700    6.3940   17.2840 C   0  0  0  0  0  0  0  0  0  0  0  0
    5.2610    6.3450   17.3470 H   0  0  0  0  0  0  0  0  0  0  0  0
    3.8800    6.0150   16.2980 H   0  0  0  0  0  0  0  0  0  0  0  0
    3.8400    7.4350   17.3240 H   0  0  0  0  0  0  0  0  0  0  0  0
  1  8  1  0  0  0  0
  1  2  1  0  0  0  0
  2  3  1  0  0  0  0
  2 10  1  0  0  0  0
  3 11  1  0  0  0  0
  3 12  1  0  0  0  0
  4  3  1  0  0  0  0
  5  4  1  0  0  0  0
  6  5  2  0  0  0  0
  7  4  1  0  0  0  0
  7  8  1  0  0  0  0
  7 13  1  0  0  0  0
  8 16  1  0  0  0  0
  9  2  1  0  0  0  0
 14  7  1  0  0  0  0
 15  8  1  0  0  0  0
 17 24  1  0  0  0  0
 17  5  1  0  0  0  0
 18 17  2  0  0  0  0
 19 18  1  0  0  0  0
 19 23  2  0  0  0  0
 20 21  2  0  0  0  0
 20 19  1  0  0  0  0
 21 22  1  0  0  0  0
 22 23  1  0  0  0  0
 23 24  1  0  0  0  0
 25 18  1  0  0  0  0
 26 28  1  0  0  0  0
 26 20  1  0  0  0  0
 27 26  1  0  0  0  0
 29 26  1  0  0  0  0
 30 37  1  0  0  0  0
 30  1  1  0  0  0  0
 31 30  2  0  0  0  0
 32 30  2  0  0  0  0
 33 42  1  0  0  0  0
 34 39  1  0  0  0  0
 34 33  2  0  0  0  0
 35 34  1  0  0  0  0
 36 35  2  0  0  0  0
 36 37  1  0  0  0  0
 37 38  2  0  0  0  0
 38 33  1  0  0  0  0
 38 41  1  0  0  0  0
 40 35  1  0  0  0  0
 42 44  1  0  0  0  0
 42 45  1  0  0  0  0
 43 42  1  0  0  0  0
 46 49  1  0  0  0  0
 46 47  1  0  0  0  0
 46 36  1  0  0  0  0
 48 46  1  0  0  0  0
M  END
>  <MODEL>
16

>  <REMARK>
 VINA RESULT:    -5.803      3.681      6.332
 INTER + INTRA:          -5.191
 INTER:                  -5.408
 INTRA:                   0.216
 UNBOUND:                 2.138
  Name = 
  6 active torsions:
  status: ('A' for Active; 'I' for Inactive)
    1  A    between atoms: C_1  and  C_2
    2  A    between atoms: C_5  and  C_6
    3  A    between atoms: C_7  and  S_8
    4  A    between atoms: S_8  and  N_11
    5  A    between atoms: C_15  and  C_17
    6  A    between atoms: C_20  and  C_21
                            x       y       z     vdW  Elec       q    Type
                         _______ _______ _______ _____ _____    ______ ____

>  <TORSDO>
F 6

$$$$
=
 OpenBabel07192307433D

 49 52  0  0  0  0  0  0  0  0999 V2000
    0.9850   13.7960   20.4210 N   0  0  0  0  0  0  0  0  0  0  0  0
   -0.4360   13.4870   20.0110 C   0  0  0  0  0  0  0  0  0  0  0  0
   -0.9420   12.1640   20.6040 C   0  0  0  0  0  0  0  0  0  0  0  0
    0.0380   11.1020   20.3890 N   0  0  0  0  0  0  0  0  0  0  0  0
   -0.1230   10.2940   19.2530 C   0  0  0  0  0  0  0  0  0  0  0  0
   -1.0450   10.5080   18.4640 O   0  0  0  0  0  0  0  0  0  0  0  0
    1.3640   11.3680   20.9720 C   0  0  0  0  0  0  0  0  0  0  0  0
    1.5250   12.8300   21.4330 C   0  0  0  0  0  0  0  0  0  0  0  0
   -0.5180   13.4310   18.9210 H   0  0  0  0  0  0  0  0  0  0  0  0
   -1.0720   14.3140   20.3430 H   0  0  0  0  0  0  0  0  0  0  0  0
   -1.9120   11.9020   20.1700 H   0  0  0  0  0  0  0  0  0  0  0  0
   -1.0970   12.2570   21.6850 H   0  0  0  0  0  0  0  0  0  0  0  0
    1.4890   10.7070   21.8350 H   0  0  0  0  0  0  0  0  0  0  0  0
    2.1440   11.1310   20.2410 H   0  0  0  0  0  0  0  0  0  0  0  0
    2.5730   13.0460   21.6680 H   0  0  0  0  0  0  0  0  0  0  0  0
    0.9770   12.9950   22.3710 H   0  0  0  0  0  0  0  0  0  0  0  0
    0.8190    9.2110   19.0210 C   0  0  0  0  0  0  0  0  0  0  0  0
    0.9870    8.0680   19.8100 C   0  0  0  0  0  0  0  0  0  0  0  0
    2.0370    7.3230   19.2920 C   0  0  0  0  0  0  0  0  0  0  0  0
    2.6770    6.1310   19.5930 C   0  0  0  0  0  0  0  0  0  0  0  0
    3.6740    5.9280   18.7010 N   0  0  0  0  0  0  0  0  0  0  0  0
    3.6440    7.0380   17.8260 O   0  0  0  0  0  0  0  0  0  0  0  0
    2.6430    7.8470   18.2240 C   0  0  0  0  0  0  0  0  0  0  0  0
    2.0100    9.3040   17.7390 S   0  0  0  0  0  0  0  0  0  0  0  0
    0.3730    7.8390   20.6730 H   0  0  0  0  0  0  0  0  0  0  0  0
    2.4290    5.1550   20.6750 C   0  0  0  0  0  0  0  0  0  0  0  0
    1.7760    5.5920   21.4380 H   0  0  0  0  0  0  0  0  0  0  0  0
    3.3680    4.8570   21.1540 H   0  0  0  0  0  0  0  0  0  0  0  0
    1.9460    4.2490   20.2940 H   0  0  0  0  0  0  0  0  0  0  0  0
    2.0690   14.1030   19.1300 S   0  0  0  0  0  0  0  0  0  0  0  0
    1.5610   15.2590   18.4180 O   0  0  0  0  0  0  0  0  0  0  0  0
    2.2980   12.8580   18.4270 O   0  0  0  0  0  0  0  0  0  0  0  0
    4.7040   14.9180   22.0990 C   0  0  0  0  0  0  0  0  0  0  0  0
    5.8630   15.2670   21.4030 C   0  0  0  0  0  0  0  0  0  0  0  0
    5.8840   15.2530   20.0050 C   0  0  0  0  0  0  0  0  0  0  0  0
    4.7470   14.8930   19.2630 C   0  0  0  0  0  0  0  0  0  0  0  0
    3.5770   14.5550   19.9710 C   0  0  0  0  0  0  0  0  0  0  0  0
    3.5560   14.5790   21.3770 C   0  0  0  0  0  0  0  0  0  0  0  0
    6.7610   15.5580   21.9440 H   0  0  0  0  0  0  0  0  0  0  0  0
    6.8030   15.5370   19.4950 H   0  0  0  0  0  0  0  0  0  0  0  0
    2.6420   14.3300   21.9150 H   0  0  0  0  0  0  0  0  0  0  0  0
    4.6770   14.9690   23.5990 C   0  0  0  0  0  0  0  0  0  0  0  0
    4.4730   13.9780   24.0160 H   0  0  0  0  0  0  0  0  0  0  0  0
    5.6400   15.3270   23.9800 H   0  0  0  0  0  0  0  0  0  0  0  0
    3.8870   15.6400   23.9570 H   0  0  0  0  0  0  0  0  0  0  0  0
    4.8290   14.9300   17.7610 C   0  0  0  0  0  0  0  0  0  0  0  0
    5.4460   15.7710   17.4330 H   0  0  0  0  0  0  0  0  0  0  0  0
    5.2850   14.0140   17.3680 H   0  0  0  0  0  0  0  0  0  0  0  0
    3.8350   14.9970   17.3110 H   0  0  0  0  0  0  0  0  0  0  0  0
  1  8  1  0  0  0  0
  2 10  1  0  0  0  0
  2  1  1  0  0  0  0
  2  3  1  0  0  0  0
  3 12  1  0  0  0  0
  4  3  1  0  0  0  0
  4  7  1  0  0  0  0
  5  4  1  0  0  0  0
  6  5  2  0  0  0  0
  7  8  1  0  0  0  0
  7 13  1  0  0  0  0
  8 15  1  0  0  0  0
  8 16  1  0  0  0  0
  9  2  1  0  0  0  0
 11  3  1  0  0  0  0
 14  7  1  0  0  0  0
 17  5  1  0  0  0  0
 17 18  2  0  0  0  0
 18 25  1  0  0  0  0
 19 20  1  0  0  0  0
 19 18  1  0  0  0  0
 20 26  1  0  0  0  0
 21 20  2  0  0  0  0
 22 23  1  0  0  0  0
 22 21  1  0  0  0  0
 23 19  2  0  0  0  0
 24 23  1  0  0  0  0
 24 17  1  0  0  0  0
 26 28  1  0  0  0  0
 26 27  1  0  0  0  0
 29 26  1  0  0  0  0
 30 37  1  0  0  0  0
 30  1  1  0  0  0  0
 31 30  2  0  0  0  0
 32 30  2  0  0  0  0
 33 42  1  0  0  0  0
 34 39  1  0  0  0  0
 34 33  1  0  0  0  0
 35 34  2  0  0  0  0
 36 37  2  0  0  0  0
 36 35  1  0  0  0  0
 37 38  1  0  0  0  0
 38 41  1  0  0  0  0
 38 33  2  0  0  0  0
 40 35  1  0  0  0  0
 42 45  1  0  0  0  0
 42 44  1  0  0  0  0
 42 43  1  0  0  0  0
 46 36  1  0  0  0  0
 47 46  1  0  0  0  0
 48 46  1  0  0  0  0
 49 46  1  0  0  0  0
M  END
>  <MODEL>
17

>  <REMARK>
 VINA RESULT:    -5.746      4.451      8.935
 INTER + INTRA:          -5.120
 INTER:                  -5.531
 INTRA:                   0.411
 UNBOUND:                 2.138
  Name = 
  6 active torsions:
  status: ('A' for Active; 'I' for Inactive)
    1  A    between atoms: C_1  and  C_2
    2  A    between atoms: C_5  and  C_6
    3  A    between atoms: C_7  and  S_8
    4  A    between atoms: S_8  and  N_11
    5  A    between atoms: C_15  and  C_17
    6  A    between atoms: C_20  and  C_21
                            x       y       z     vdW  Elec       q    Type
                         _______ _______ _______ _____ _____    ______ ____

>  <TORSDO>
F 6

$$$$
=
 OpenBabel07192307433D

 49 52  0  0  0  0  0  0  0  0999 V2000
    0.2070   10.2350   20.5280 N   0  0  0  0  0  0  0  0  0  0  0  0
   -0.7640    9.1550   20.9500 C   0  0  0  0  0  0  0  0  0  0  0  0
   -0.1170    8.1190   21.8800 C   0  0  0  0  0  0  0  0  0  0  0  0
    1.1570    7.6630   21.3280 N   0  0  0  0  0  0  0  0  0  0  0  0
    1.1430    6.4970   20.5480 C   0  0  0  0  0  0  0  0  0  0  0  0
    0.0820    5.9100   20.3250 O   0  0  0  0  0  0  0  0  0  0  0  0
    2.1440    8.7330   21.1060 C   0  0  0  0  0  0  0  0  0  0  0  0
    1.5280   10.1410   21.2300 C   0  0  0  0  0  0  0  0  0  0  0  0
   -1.1620    8.6330   20.0750 H   0  0  0  0  0  0  0  0  0  0  0  0
   -1.6080    9.6360   21.4540 H   0  0  0  0  0  0  0  0  0  0  0  0
   -0.8010    7.2800   22.0430 H   0  0  0  0  0  0  0  0  0  0  0  0
    0.0870    8.5540   22.8650 H   0  0  0  0  0  0  0  0  0  0  0  0
    2.9310    8.6230   21.8580 H   0  0  0  0  0  0  0  0  0  0  0  0
    2.5950    8.6220   20.1160 H   0  0  0  0  0  0  0  0  0  0  0  0
    2.2270   10.9000   20.8640 H   0  0  0  0  0  0  0  0  0  0  0  0
    1.3570   10.3890   22.2870 H   0  0  0  0  0  0  0  0  0  0  0  0
    2.3960    6.0000   20.0040 C   0  0  0  0  0  0  0  0  0  0  0  0
    3.1560    6.5880   18.9860 C   0  0  0  0  0  0  0  0  0  0  0  0
    4.2360    5.7630   18.7060 C   0  0  0  0  0  0  0  0  0  0  0  0
    5.3220    5.7740   17.8450 C   0  0  0  0  0  0  0  0  0  0  0  0
    6.0460    4.6480   18.0330 N   0  0  0  0  0  0  0  0  0  0  0  0
    5.3780    3.9200   19.0440 O   0  0  0  0  0  0  0  0  0  0  0  0
    4.2960    4.6320   19.4150 C   0  0  0  0  0  0  0  0  0  0  0  0
    3.0440    4.4460   20.4900 S   0  0  0  0  0  0  0  0  0  0  0  0
    2.9070    7.5350   18.5240 H   0  0  0  0  0  0  0  0  0  0  0  0
    5.7340    6.7710   16.8350 C   0  0  0  0  0  0  0  0  0  0  0  0
    5.7630    6.3150   15.8410 H   0  0  0  0  0  0  0  0  0  0  0  0
    6.7300    7.1670   17.0620 H   0  0  0  0  0  0  0  0  0  0  0  0
    5.0390    7.6170   16.8000 H   0  0  0  0  0  0  0  0  0  0  0  0
    0.3510   10.4680   18.8370 S   0  0  0  0  0  0  0  0  0  0  0  0
    0.7720    9.2010   18.2700 O   0  0  0  0  0  0  0  0  0  0  0  0
    1.1370   11.6630   18.6110 O   0  0  0  0  0  0  0  0  0  0  0  0
   -3.1140   10.3510   16.7390 C   0  0  0  0  0  0  0  0  0  0  0  0
   -3.9280   11.2520   17.4290 C   0  0  0  0  0  0  0  0  0  0  0  0
   -3.4520   11.9160   18.5630 C   0  0  0  0  0  0  0  0  0  0  0  0
   -2.1490   11.7000   19.0400 C   0  0  0  0  0  0  0  0  0  0  0  0
   -1.3280   10.8010   18.3330 C   0  0  0  0  0  0  0  0  0  0  0  0
   -1.8060   10.1410   17.1860 C   0  0  0  0  0  0  0  0  0  0  0  0
   -4.9420   11.4490   17.0850 H   0  0  0  0  0  0  0  0  0  0  0  0
   -4.1130   12.6160   19.0720 H   0  0  0  0  0  0  0  0  0  0  0  0
   -1.1580    9.4570   16.6380 H   0  0  0  0  0  0  0  0  0  0  0  0
   -3.6180    9.6680   15.5010 C   0  0  0  0  0  0  0  0  0  0  0  0
   -4.3250    8.8730   15.7590 H   0  0  0  0  0  0  0  0  0  0  0  0
   -4.1180   10.3940   14.8500 H   0  0  0  0  0  0  0  0  0  0  0  0
   -2.7970    9.2040   14.9440 H   0  0  0  0  0  0  0  0  0  0  0  0
   -1.6900   12.4720   20.2480 C   0  0  0  0  0  0  0  0  0  0  0  0
   -0.5990   12.5220   20.2760 H   0  0  0  0  0  0  0  0  0  0  0  0
   -2.0670   13.5010   20.2250 H   0  0  0  0  0  0  0  0  0  0  0  0
   -2.0690   12.0260   21.1710 H   0  0  0  0  0  0  0  0  0  0  0  0
  1  2  1  0  0  0  0
  1  8  1  0  0  0  0
  2 10  1  0  0  0  0
  2  3  1  0  0  0  0
  3 11  1  0  0  0  0
  3 12  1  0  0  0  0
  4  3  1  0  0  0  0
  5  4  1  0  0  0  0
  6  5  2  0  0  0  0
  7  8  1  0  0  0  0
  7  4  1  0  0  0  0
  7 13  1  0  0  0  0
  8 16  1  0  0  0  0
  9  2  1  0  0  0  0
 14  7  1  0  0  0  0
 15  8  1  0  0  0  0
 17 24  1  0  0  0  0
 17  5  1  0  0  0  0
 18 17  2  0  0  0  0
 19 18  1  0  0  0  0
 19 23  2  0  0  0  0
 20 21  2  0  0  0  0
 20 19  1  0  0  0  0
 21 22  1  0  0  0  0
 22 23  1  0  0  0  0
 23 24  1  0  0  0  0
 25 18  1  0  0  0  0
 26 28  1  0  0  0  0
 26 20  1  0  0  0  0
 27 26  1  0  0  0  0
 29 26  1  0  0  0  0
 30  1  1  0  0  0  0
 31 30  2  0  0  0  0
 32 30  2  0  0  0  0
 33 38  2  0  0  0  0
 33 34  1  0  0  0  0
 34 35  2  0  0  0  0
 35 36  1  0  0  0  0
 35 40  1  0  0  0  0
 36 46  1  0  0  0  0
 37 30  1  0  0  0  0
 37 36  2  0  0  0  0
 38 37  1  0  0  0  0
 39 34  1  0  0  0  0
 41 38  1  0  0  0  0
 42 43  1  0  0  0  0
 42 33  1  0  0  0  0
 44 42  1  0  0  0  0
 45 42  1  0  0  0  0
 46 47  1  0  0  0  0
 46 49  1  0  0  0  0
 48 46  1  0  0  0  0
M  END
>  <MODEL>
18

>  <REMARK>
 VINA RESULT:    -5.715      3.180      8.140
 INTER + INTRA:          -5.080
 INTER:                  -5.265
 INTRA:                   0.184
 UNBOUND:                 2.138
  Name = 
  6 active torsions:
  status: ('A' for Active; 'I' for Inactive)
    1  A    between atoms: C_1  and  C_2
    2  A    between atoms: C_5  and  C_6
    3  A    between atoms: C_7  and  S_8
    4  A    between atoms: S_8  and  N_11
    5  A    between atoms: C_15  and  C_17
    6  A    between atoms: C_20  and  C_21
                            x       y       z     vdW  Elec       q    Type
                         _______ _______ _______ _____ _____    ______ ____

>  <TORSDO>
F 6

$$$$
=
 OpenBabel07192307433D

 49 52  0  0  0  0  0  0  0  0999 V2000
    1.9370    7.2670   20.3510 N   0  0  0  0  0  0  0  0  0  0  0  0
    2.4910    8.5540   20.9160 C   0  0  0  0  0  0  0  0  0  0  0  0
    1.4160    9.3960   21.6180 C   0  0  0  0  0  0  0  0  0  0  0  0
    0.2320    9.5190   20.7710 N   0  0  0  0  0  0  0  0  0  0  0  0
    0.1400   10.6520   19.9490 C   0  0  0  0  0  0  0  0  0  0  0  0
    1.0480   11.4850   19.9340 O   0  0  0  0  0  0  0  0  0  0  0  0
   -0.3870    8.2360   20.3970 C   0  0  0  0  0  0  0  0  0  0  0  0
    0.5080    7.0270   20.7350 C   0  0  0  0  0  0  0  0  0  0  0  0
    2.9410    9.1600   20.1230 H   0  0  0  0  0  0  0  0  0  0  0  0
    3.2880    8.3000   21.6220 H   0  0  0  0  0  0  0  0  0  0  0  0
    1.8180   10.3800   21.8810 H   0  0  0  0  0  0  0  0  0  0  0  0
    1.1040    8.9240   22.5560 H   0  0  0  0  0  0  0  0  0  0  0  0
   -1.3290    8.1460   20.9470 H   0  0  0  0  0  0  0  0  0  0  0  0
   -0.6110    8.2310   19.3260 H   0  0  0  0  0  0  0  0  0  0  0  0
    0.1180    6.1170   20.2660 H   0  0  0  0  0  0  0  0  0  0  0  0
    0.4860    6.8290   21.8150 H   0  0  0  0  0  0  0  0  0  0  0  0
   -1.0370   10.8200   19.1110 C   0  0  0  0  0  0  0  0  0  0  0  0
   -1.2120   10.3340   17.8110 C   0  0  0  0  0  0  0  0  0  0  0  0
   -2.4390   10.7760   17.3340 C   0  0  0  0  0  0  0  0  0  0  0  0
   -3.1800   10.6430   16.1710 C   0  0  0  0  0  0  0  0  0  0  0  0
   -4.3330   11.3380   16.3000 N   0  0  0  0  0  0  0  0  0  0  0  0
   -4.2950   11.9180   17.5890 O   0  0  0  0  0  0  0  0  0  0  0  0
   -3.1360   11.5510   18.1690 C   0  0  0  0  0  0  0  0  0  0  0  0
   -2.3740   11.8330   19.6180 S   0  0  0  0  0  0  0  0  0  0  0  0
   -0.4860    9.7150   17.2990 H   0  0  0  0  0  0  0  0  0  0  0  0
   -2.8810    9.9120   14.9210 C   0  0  0  0  0  0  0  0  0  0  0  0
   -2.2450   10.5190   14.2690 H   0  0  0  0  0  0  0  0  0  0  0  0
   -3.8020    9.6720   14.3800 H   0  0  0  0  0  0  0  0  0  0  0  0
   -2.3590    8.9710   15.1240 H   0  0  0  0  0  0  0  0  0  0  0  0
    2.2460    7.0060   18.6860 S   0  0  0  0  0  0  0  0  0  0  0  0
    2.4140    8.3110   18.0780 O   0  0  0  0  0  0  0  0  0  0  0  0
    1.2450    6.0900   18.1800 O   0  0  0  0  0  0  0  0  0  0  0  0
    6.1390    6.1490   17.9550 C   0  0  0  0  0  0  0  0  0  0  0  0
    6.3220    4.9340   18.6190 C   0  0  0  0  0  0  0  0  0  0  0  0
    5.2690    4.3410   19.3220 C   0  0  0  0  0  0  0  0  0  0  0  0
    4.0020    4.9450   19.3800 C   0  0  0  0  0  0  0  0  0  0  0  0
    3.8190    6.1630   18.6970 C   0  0  0  0  0  0  0  0  0  0  0  0
    4.8770    6.7510   17.9830 C   0  0  0  0  0  0  0  0  0  0  0  0
    7.2880    4.4340   18.5910 H   0  0  0  0  0  0  0  0  0  0  0  0
    5.4460    3.3910   19.8230 H   0  0  0  0  0  0  0  0  0  0  0  0
    4.7220    7.6870   17.4460 H   0  0  0  0  0  0  0  0  0  0  0  0
    7.2630    6.7610   17.1720 C   0  0  0  0  0  0  0  0  0  0  0  0
    8.0260    7.1670   17.8430 H   0  0  0  0  0  0  0  0  0  0  0  0
    7.7210    6.0080   16.5220 H   0  0  0  0  0  0  0  0  0  0  0  0
    6.9050    7.5900   16.5510 H   0  0  0  0  0  0  0  0  0  0  0  0
    2.9040    4.2380   20.1280 C   0  0  0  0  0  0  0  0  0  0  0  0
    1.9270    4.6240   19.8270 H   0  0  0  0  0  0  0  0  0  0  0  0
    2.9120    3.1620   19.9180 H   0  0  0  0  0  0  0  0  0  0  0  0
    3.0300    4.3410   21.2100 H   0  0  0  0  0  0  0  0  0  0  0  0
  1  8  1  0  0  0  0
  1  2  1  0  0  0  0
  2  3  1  0  0  0  0
  2 10  1  0  0  0  0
  3 11  1  0  0  0  0
  3 12  1  0  0  0  0
  4  3  1  0  0  0  0
  5  4  1  0  0  0  0
  6  5  2  0  0  0  0
  7  8  1  0  0  0  0
  7  4  1  0  0  0  0
  7 13  1  0  0  0  0
  8 16  1  0  0  0  0
  9  2  1  0  0  0  0
 14  7  1  0  0  0  0
 15  8  1  0  0  0  0
 17 24  1  0  0  0  0
 17  5  1  0  0  0  0
 18 17  2  0  0  0  0
 19 18  1  0  0  0  0
 19 23  2  0  0  0  0
 20 21  2  0  0  0  0
 20 19  1  0  0  0  0
 21 22  1  0  0  0  0
 22 23  1  0  0  0  0
 23 24  1  0  0  0  0
 25 18  1  0  0  0  0
 26 29  1  0  0  0  0
 26 20  1  0  0  0  0
 27 26  1  0  0  0  0
 28 26  1  0  0  0  0
 30 37  1  0  0  0  0
 30  1  1  0  0  0  0
 31 30  2  0  0  0  0
 32 30  2  0  0  0  0
 33 38  2  0  0  0  0
 33 34  1  0  0  0  0
 34 35  2  0  0  0  0
 35 36  1  0  0  0  0
 35 40  1  0  0  0  0
 36 46  1  0  0  0  0
 37 36  2  0  0  0  0
 38 37  1  0  0  0  0
 39 34  1  0  0  0  0
 41 38  1  0  0  0  0
 42 43  1  0  0  0  0
 42 33  1  0  0  0  0
 44 42  1  0  0  0  0
 45 42  1  0  0  0  0
 46 49  1  0  0  0  0
 47 46  1  0  0  0  0
 48 46  1  0  0  0  0
M  END
>  <MODEL>
19

>  <REMARK>
 VINA RESULT:    -5.679      3.530      5.517
 INTER + INTRA:          -5.035
 INTER:                  -4.626
 INTRA:                  -0.409
 UNBOUND:                 2.138
  Name = 
  6 active torsions:
  status: ('A' for Active; 'I' for Inactive)
    1  A    between atoms: C_1  and  C_2
    2  A    between atoms: C_5  and  C_6
    3  A    between atoms: C_7  and  S_8
    4  A    between atoms: S_8  and  N_11
    5  A    between atoms: C_15  and  C_17
    6  A    between atoms: C_20  and  C_21
                            x       y       z     vdW  Elec       q    Type
                         _______ _______ _______ _____ _____    ______ ____

>  <TORSDO>
F 6

$$$$
=
 OpenBabel07192307433D

 49 52  0  0  0  0  0  0  0  0999 V2000
    0.6570   10.2650   18.8830 N   0  0  0  0  0  0  0  0  0  0  0  0
    2.1120   10.4670   18.5270 C   0  0  0  0  0  0  0  0  0  0  0  0
    2.5580    9.5720   17.3610 C   0  0  0  0  0  0  0  0  0  0  0  0
    2.1330    8.1920   17.5860 N   0  0  0  0  0  0  0  0  0  0  0  0
    3.0520    7.3250   18.1960 C   0  0  0  0  0  0  0  0  0  0  0  0
    4.1590    7.7380   18.5470 O   0  0  0  0  0  0  0  0  0  0  0  0
    0.6790    8.0190   17.7440 C   0  0  0  0  0  0  0  0  0  0  0  0
   -0.0590    9.3590   17.9270 C   0  0  0  0  0  0  0  0  0  0  0  0
    2.7520   10.2560   19.3890 H   0  0  0  0  0  0  0  0  0  0  0  0
    2.2550   11.5200   18.2660 H   0  0  0  0  0  0  0  0  0  0  0  0
    3.6430    9.6360   17.2300 H   0  0  0  0  0  0  0  0  0  0  0  0
    2.1080    9.9070   16.4200 H   0  0  0  0  0  0  0  0  0  0  0  0
    0.3020    7.5260   16.8420 H   0  0  0  0  0  0  0  0  0  0  0  0
    0.4740    7.3730   18.6020 H   0  0  0  0  0  0  0  0  0  0  0  0
   -1.0940    9.1880   18.2420 H   0  0  0  0  0  0  0  0  0  0  0  0
   -0.1320    9.8870   16.9660 H   0  0  0  0  0  0  0  0  0  0  0  0
    2.6730    5.9380   18.4120 C   0  0  0  0  0  0  0  0  0  0  0  0
    2.2250    5.3730   19.6110 C   0  0  0  0  0  0  0  0  0  0  0  0
    2.0440    4.0100   19.4180 C   0  0  0  0  0  0  0  0  0  0  0  0
    1.6270    2.9270   20.1760 C   0  0  0  0  0  0  0  0  0  0  0  0
    1.6740    1.8100   19.4140 N   0  0  0  0  0  0  0  0  0  0  0  0
    2.1390    2.2260   18.1450 O   0  0  0  0  0  0  0  0  0  0  0  0
    2.3480    3.5550   18.2000 C   0  0  0  0  0  0  0  0  0  0  0  0
    2.8920    4.7310   17.1600 S   0  0  0  0  0  0  0  0  0  0  0  0
    2.0570    5.9420   20.5170 H   0  0  0  0  0  0  0  0  0  0  0  0
    1.1910    2.8540   21.5860 C   0  0  0  0  0  0  0  0  0  0  0  0
    1.1860    1.8150   21.9290 H   0  0  0  0  0  0  0  0  0  0  0  0
    0.1810    3.2620   21.7030 H   0  0  0  0  0  0  0  0  0  0  0  0
    1.8580    3.4240   22.2410 H   0  0  0  0  0  0  0  0  0  0  0  0
    0.3520    9.8930   20.5280 S   0  0  0  0  0  0  0  0  0  0  0  0
    1.6330    9.6000   21.1400 O   0  0  0  0  0  0  0  0  0  0  0  0
   -0.7190    8.9200   20.5800 O   0  0  0  0  0  0  0  0  0  0  0  0
   -0.6170   13.8180   20.8130 C   0  0  0  0  0  0  0  0  0  0  0  0
   -1.1690   13.9120   22.0920 C   0  0  0  0  0  0  0  0  0  0  0  0
   -1.2760   12.7800   22.9060 C   0  0  0  0  0  0  0  0  0  0  0  0
   -0.8330   11.5230   22.4650 C   0  0  0  0  0  0  0  0  0  0  0  0
   -0.2640   11.4360   21.1800 C   0  0  0  0  0  0  0  0  0  0  0  0
   -0.1490   12.5780   20.3680 C   0  0  0  0  0  0  0  0  0  0  0  0
   -1.5180   14.8710   22.4700 H   0  0  0  0  0  0  0  0  0  0  0  0
   -1.7060   12.8920   23.9000 H   0  0  0  0  0  0  0  0  0  0  0  0
    0.3060   12.5040   19.3800 H   0  0  0  0  0  0  0  0  0  0  0  0
   -0.4710   15.0430   19.9590 C   0  0  0  0  0  0  0  0  0  0  0  0
    0.4930   15.0410   19.4410 H   0  0  0  0  0  0  0  0  0  0  0  0
   -1.2760   15.0810   19.2160 H   0  0  0  0  0  0  0  0  0  0  0  0
   -0.5100   15.9550   20.5660 H   0  0  0  0  0  0  0  0  0  0  0  0
   -0.9490   10.3520   23.4040 C   0  0  0  0  0  0  0  0  0  0  0  0
   -1.2310   10.6910   24.4040 H   0  0  0  0  0  0  0  0  0  0  0  0
   -1.7200    9.6500   23.0650 H   0  0  0  0  0  0  0  0  0  0  0  0
   -0.0150    9.7860   23.4500 H   0  0  0  0  0  0  0  0  0  0  0  0
  1 30  1  0  0  0  0
  2  1  1  0  0  0  0
  2  9  1  0  0  0  0
  3  4  1  0  0  0  0
  3  2  1  0  0  0  0
  4  7  1  0  0  0  0
  4  5  1  0  0  0  0
  5 17  1  0  0  0  0
  5  6  2  0  0  0  0
  7  8  1  0  0  0  0
  7 14  1  0  0  0  0
  8 15  1  0  0  0  0
  8  1  1  0  0  0  0
 10  2  1  0  0  0  0
 11  3  1  0  0  0  0
 12  3  1  0  0  0  0
 13  7  1  0  0  0  0
 16  8  1  0  0  0  0
 17 18  2  0  0  0  0
 18 25  1  0  0  0  0
 19 18  1  0  0  0  0
 19 20  1  0  0  0  0
 20 26  1  0  0  0  0
 21 20  2  0  0  0  0
 22 23  1  0  0  0  0
 22 21  1  0  0  0  0
 23 19  2  0  0  0  0
 24 23  1  0  0  0  0
 24 17  1  0  0  0  0
 26 28  1  0  0  0  0
 26 27  1  0  0  0  0
 26 29  1  0  0  0  0
 30 32  2  0  0  0  0
 30 31  2  0  0  0  0
 30 37  1  0  0  0  0
 33 34  1  0  0  0  0
 34 39  1  0  0  0  0
 34 35  2  0  0  0  0
 35 40  1  0  0  0  0
 36 35  1  0  0  0  0
 36 46  1  0  0  0  0
 37 36  2  0  0  0  0
 38 33  2  0  0  0  0
 38 37  1  0  0  0  0
 41 38  1  0  0  0  0
 42 45  1  0  0  0  0
 42 33  1  0  0  0  0
 43 42  1  0  0  0  0
 44 42  1  0  0  0  0
 46 49  1  0  0  0  0
 46 47  1  0  0  0  0
 48 46  1  0  0  0  0
M  END
>  <MODEL>
20

>  <REMARK>
 VINA RESULT:    -5.527      3.487      8.646
 INTER + INTRA:          -4.843
 INTER:                  -4.274
 INTRA:                  -0.569
 UNBOUND:                 2.138
  Name = 
  6 active torsions:
  status: ('A' for Active; 'I' for Inactive)
    1  A    between atoms: C_1  and  C_2
    2  A    between atoms: C_5  and  C_6
    3  A    between atoms: C_7  and  S_8
    4  A    between atoms: S_8  and  N_11
    5  A    between atoms: C_15  and  C_17
    6  A    between atoms: C_20  and  C_21
                            x       y       z     vdW  Elec       q    Type
                         _______ _______ _______ _____ _____    ______ ____

>  <TORSDO>
F 6

$$$$
=
 OpenBabel07192307433D

 49 52  0  0  0  0  0  0  0  0999 V2000
   -2.0560   12.0710   19.7150 N   0  0  0  0  0  0  0  0  0  0  0  0
   -1.0140   12.8400   18.9370 C   0  0  0  0  0  0  0  0  0  0  0  0
   -0.4680   12.0420   17.7440 C   0  0  0  0  0  0  0  0  0  0  0  0
   -0.0980   10.6920   18.1610 N   0  0  0  0  0  0  0  0  0  0  0  0
    1.2400   10.4710   18.5210 C   0  0  0  0  0  0  0  0  0  0  0  0
    2.0490   11.4000   18.5090 O   0  0  0  0  0  0  0  0  0  0  0  0
   -1.2000    9.9100   18.7470 C   0  0  0  0  0  0  0  0  0  0  0  0
   -2.4350   10.7750   19.0640 C   0  0  0  0  0  0  0  0  0  0  0  0
   -0.1740   13.1120   19.5830 H   0  0  0  0  0  0  0  0  0  0  0  0
   -1.4690   13.7720   18.5870 H   0  0  0  0  0  0  0  0  0  0  0  0
    0.3830   12.5660   17.2960 H   0  0  0  0  0  0  0  0  0  0  0  0
   -1.2280   11.9490   16.9590 H   0  0  0  0  0  0  0  0  0  0  0  0
   -1.4830    9.1370   18.0260 H   0  0  0  0  0  0  0  0  0  0  0  0
   -0.8590    9.4190   19.6630 H   0  0  0  0  0  0  0  0  0  0  0  0
   -3.1490   10.2170   19.6780 H   0  0  0  0  0  0  0  0  0  0  0  0
   -2.9760   11.0180   18.1390 H   0  0  0  0  0  0  0  0  0  0  0  0
    1.6500    9.1330   18.9170 C   0  0  0  0  0  0  0  0  0  0  0  0
    2.2200    8.1570   18.0930 C   0  0  0  0  0  0  0  0  0  0  0  0
    2.3910    6.9960   18.8340 C   0  0  0  0  0  0  0  0  0  0  0  0
    2.8910    5.7210   18.6180 C   0  0  0  0  0  0  0  0  0  0  0  0
    2.7770    5.0030   19.7590 N   0  0  0  0  0  0  0  0  0  0  0  0
    2.1830    5.8690   20.7050 O   0  0  0  0  0  0  0  0  0  0  0  0
    1.9710    7.0540   20.1000 C   0  0  0  0  0  0  0  0  0  0  0  0
    1.3150    8.5200   20.5250 S   0  0  0  0  0  0  0  0  0  0  0  0
    2.4740    8.3230   17.0540 H   0  0  0  0  0  0  0  0  0  0  0  0
    3.4670    5.1110   17.4020 C   0  0  0  0  0  0  0  0  0  0  0  0
    4.3590    5.6620   17.0860 H   0  0  0  0  0  0  0  0  0  0  0  0
    2.7440    5.1230   16.5790 H   0  0  0  0  0  0  0  0  0  0  0  0
    3.7570    4.0690   17.5760 H   0  0  0  0  0  0  0  0  0  0  0  0
   -1.7530   11.9230   21.3950 S   0  0  0  0  0  0  0  0  0  0  0  0
   -1.1270   10.6320   21.5990 O   0  0  0  0  0  0  0  0  0  0  0  0
   -2.9680   12.2640   22.1050 O   0  0  0  0  0  0  0  0  0  0  0  0
    1.7010   14.0400   21.2900 C   0  0  0  0  0  0  0  0  0  0  0  0
    1.4250   15.1330   22.1150 C   0  0  0  0  0  0  0  0  0  0  0  0
    0.1720   15.2670   22.7210 C   0  0  0  0  0  0  0  0  0  0  0  0
   -0.8390   14.3130   22.5220 C   0  0  0  0  0  0  0  0  0  0  0  0
   -0.5500   13.2070   21.7000 C   0  0  0  0  0  0  0  0  0  0  0  0
    0.7140   13.0690   21.0990 C   0  0  0  0  0  0  0  0  0  0  0  0
    2.1860   15.8890   22.2980 H   0  0  0  0  0  0  0  0  0  0  0  0
   -0.0060   16.1280   23.3630 H   0  0  0  0  0  0  0  0  0  0  0  0
    0.9330   12.2020   20.4760 H   0  0  0  0  0  0  0  0  0  0  0  0
    3.0600   13.8830   20.6720 C   0  0  0  0  0  0  0  0  0  0  0  0
    3.0360   14.1540   19.6110 H   0  0  0  0  0  0  0  0  0  0  0  0
    3.7840   14.5230   21.1880 H   0  0  0  0  0  0  0  0  0  0  0  0
    3.4030   12.8440   20.7330 H   0  0  0  0  0  0  0  0  0  0  0  0
   -2.1540   14.5020   23.2290 C   0  0  0  0  0  0  0  0  0  0  0  0
   -2.9570   14.6630   22.5050 H   0  0  0  0  0  0  0  0  0  0  0  0
   -2.4160   13.6170   23.8190 H   0  0  0  0  0  0  0  0  0  0  0  0
   -2.1100   15.3390   23.9320 H   0  0  0  0  0  0  0  0  0  0  0  0
  1 30  1  0  0  0  0
  2  9  1  0  0  0  0
  2  1  1  0  0  0  0
  3  4  1  0  0  0  0
  3  2  1  0  0  0  0
  4  5  1  0  0  0  0
  4  7  1  0  0  0  0
  5 17  1  0  0  0  0
  6  5  2  0  0  0  0
  7  8  1  0  0  0  0
  7 14  1  0  0  0  0
  8 15  1  0  0  0  0
  8  1  1  0  0  0  0
 10  2  1  0  0  0  0
 11  3  1  0  0  0  0
 12  3  1  0  0  0  0
 13  7  1  0  0  0  0
 16  8  1  0  0  0  0
 17 24  1  0  0  0  0
 18 19  1  0  0  0  0
 18 17  2  0  0  0  0
 19 23  2  0  0  0  0
 20 19  1  0  0  0  0
 20 21  2  0  0  0  0
 21 22  1  0  0  0  0
 23 24  1  0  0  0  0
 23 22  1  0  0  0  0
 25 18  1  0  0  0  0
 26 29  1  0  0  0  0
 26 20  1  0  0  0  0
 27 26  1  0  0  0  0
 28 26  1  0  0  0  0
 30 31  2  0  0  0  0
 30 37  1  0  0  0  0
 30 32  2  0  0  0  0
 33 34  1  0  0  0  0
 34 39  1  0  0  0  0
 34 35  2  0  0  0  0
 35 40  1  0  0  0  0
 36 35  1  0  0  0  0
 36 46  1  0  0  0  0
 37 36  2  0  0  0  0
 38 33  2  0  0  0  0
 38 37  1  0  0  0  0
 41 38  1  0  0  0  0
 42 45  1  0  0  0  0
 42 44  1  0  0  0  0
 42 33  1  0  0  0  0
 43 42  1  0  0  0  0
 46 48  1  0  0  0  0
 46 49  1  0  0  0  0
 47 46  1  0  0  0  0
M  END
>  <MODEL>
21

>  <REMARK>
 VINA RESULT:    -5.451      3.482      9.470
 INTER + INTRA:          -4.747
 INTER:                  -6.041
 INTRA:                   1.294
 UNBOUND:                 2.138
  Name = 
  6 active torsions:
  status: ('A' for Active; 'I' for Inactive)
    1  A    between atoms: C_1  and  C_2
    2  A    between atoms: C_5  and  C_6
    3  A    between atoms: C_7  and  S_8
    4  A    between atoms: S_8  and  N_11
    5  A    between atoms: C_15  and  C_17
    6  A    between atoms: C_20  and  C_21
                            x       y       z     vdW  Elec       q    Type
                         _______ _______ _______ _____ _____    ______ ____

>  <TORSDO>
F 6

$$$$
=
 OpenBabel07192307433D

 49 52  0  0  0  0  0  0  0  0999 V2000
   -0.0020    9.9340   20.7320 N   0  0  0  0  0  0  0  0  0  0  0  0
   -0.8030    8.7460   21.2110 C   0  0  0  0  0  0  0  0  0  0  0  0
    0.0490    7.7490   22.0090 C   0  0  0  0  0  0  0  0  0  0  0  0
    1.2870    7.4480   21.2920 N   0  0  0  0  0  0  0  0  0  0  0  0
    1.2950    6.3150   20.4650 C   0  0  0  0  0  0  0  0  0  0  0  0
    0.2780    5.6300   20.3380 O   0  0  0  0  0  0  0  0  0  0  0  0
    2.1290    8.6220   21.0100 C   0  0  0  0  0  0  0  0  0  0  0  0
    1.3970    9.9530   21.2710 C   0  0  0  0  0  0  0  0  0  0  0  0
   -1.2500    8.2170   20.3640 H   0  0  0  0  0  0  0  0  0  0  0  0
   -1.6240    9.1170   21.8320 H   0  0  0  0  0  0  0  0  0  0  0  0
   -0.5230    6.8380   22.2100 H   0  0  0  0  0  0  0  0  0  0  0  0
    0.3260    8.1670   22.9840 H   0  0  0  0  0  0  0  0  0  0  0  0
    3.0080    8.5670   21.6590 H   0  0  0  0  0  0  0  0  0  0  0  0
    2.4670    8.5940   19.9690 H   0  0  0  0  0  0  0  0  0  0  0  0
    1.9680   10.7930   20.8630 H   0  0  0  0  0  0  0  0  0  0  0  0
    1.3300   10.1440   22.3510 H   0  0  0  0  0  0  0  0  0  0  0  0
    2.5170    5.9710   19.7560 C   0  0  0  0  0  0  0  0  0  0  0  0
    2.9530    6.5040   18.5380 C   0  0  0  0  0  0  0  0  0  0  0  0
    4.1230    5.8560   18.1650 C   0  0  0  0  0  0  0  0  0  0  0  0
    5.0220    5.9180   17.1130 C   0  0  0  0  0  0  0  0  0  0  0  0
    5.9910    4.9940   17.3050 N   0  0  0  0  0  0  0  0  0  0  0  0
    5.6700    4.3420   18.5170 O   0  0  0  0  0  0  0  0  0  0  0  0
    4.5390    4.8950   18.9940 C   0  0  0  0  0  0  0  0  0  0  0  0
    3.5520    4.6700   20.3110 S   0  0  0  0  0  0  0  0  0  0  0  0
    2.4360    7.2950   18.0100 H   0  0  0  0  0  0  0  0  0  0  0  0
    5.0390    6.7850   15.9150 C   0  0  0  0  0  0  0  0  0  0  0  0
    5.8070    7.5580   16.0170 H   0  0  0  0  0  0  0  0  0  0  0  0
    4.0700    7.2760   15.7760 H   0  0  0  0  0  0  0  0  0  0  0  0
    5.2550    6.2100   15.0090 H   0  0  0  0  0  0  0  0  0  0  0  0
   -0.0850   10.2410   19.0480 S   0  0  0  0  0  0  0  0  0  0  0  0
   -1.4640   10.0430   18.6500 O   0  0  0  0  0  0  0  0  0  0  0  0
    0.9750    9.4960   18.4010 O   0  0  0  0  0  0  0  0  0  0  0  0
    1.9920   13.6710   18.4540 C   0  0  0  0  0  0  0  0  0  0  0  0
    1.0520   14.6610   18.7500 C   0  0  0  0  0  0  0  0  0  0  0  0
   -0.2490   14.3170   19.1300 C   0  0  0  0  0  0  0  0  0  0  0  0
   -0.6480   12.9740   19.2250 C   0  0  0  0  0  0  0  0  0  0  0  0
    0.3080   11.9790   18.9380 C   0  0  0  0  0  0  0  0  0  0  0  0
    1.6180   12.3280   18.5670 C   0  0  0  0  0  0  0  0  0  0  0  0
    1.3280   15.7120   18.6940 H   0  0  0  0  0  0  0  0  0  0  0  0
   -0.9520   15.1150   19.3600 H   0  0  0  0  0  0  0  0  0  0  0  0
    2.3540   11.5510   18.3600 H   0  0  0  0  0  0  0  0  0  0  0  0
    3.3970   14.0460   18.0830 C   0  0  0  0  0  0  0  0  0  0  0  0
    4.1090   13.6450   18.8110 H   0  0  0  0  0  0  0  0  0  0  0  0
    3.6400   13.6510   17.0900 H   0  0  0  0  0  0  0  0  0  0  0  0
    3.5240   15.1340   18.0700 H   0  0  0  0  0  0  0  0  0  0  0  0
   -2.0540   12.6730   19.6690 C   0  0  0  0  0  0  0  0  0  0  0  0
   -2.1180   11.6590   20.0740 H   0  0  0  0  0  0  0  0  0  0  0  0
   -2.3750   13.3630   20.4580 H   0  0  0  0  0  0  0  0  0  0  0  0
   -2.7640   12.7930   18.8470 H   0  0  0  0  0  0  0  0  0  0  0  0
  1  2  1  0  0  0  0
  1  8  1  0  0  0  0
  2 10  1  0  0  0  0
  2  3  1  0  0  0  0
  3 11  1  0  0  0  0
  3 12  1  0  0  0  0
  4  3  1  0  0  0  0
  5  4  1  0  0  0  0
  6  5  2  0  0  0  0
  7  8  1  0  0  0  0
  7  4  1  0  0  0  0
  7 13  1  0  0  0  0
  8 16  1  0  0  0  0
  9  2  1  0  0  0  0
 14  7  1  0  0  0  0
 15  8  1  0  0  0  0
 17 24  1  0  0  0  0
 17  5  1  0  0  0  0
 18 17  2  0  0  0  0
 19 18  1  0  0  0  0
 19 23  2  0  0  0  0
 20 21  2  0  0  0  0
 20 19  1  0  0  0  0
 21 22  1  0  0  0  0
 22 23  1  0  0  0  0
 23 24  1  0  0  0  0
 25 18  1  0  0  0  0
 26 27  1  0  0  0  0
 26 20  1  0  0  0  0
 28 26  1  0  0  0  0
 29 26  1  0  0  0  0
 30  1  1  0  0  0  0
 31 30  2  0  0  0  0
 32 30  2  0  0  0  0
 33 38  2  0  0  0  0
 33 34  1  0  0  0  0
 34 35  2  0  0  0  0
 35 36  1  0  0  0  0
 35 40  1  0  0  0  0
 36 46  1  0  0  0  0
 37 30  1  0  0  0  0
 37 36  2  0  0  0  0
 38 37  1  0  0  0  0
 39 34  1  0  0  0  0
 41 38  1  0  0  0  0
 42 33  1  0  0  0  0
 42 43  1  0  0  0  0
 44 42  1  0  0  0  0
 45 42  1  0  0  0  0
 46 47  1  0  0  0  0
 46 48  1  0  0  0  0
 49 46  1  0  0  0  0
M  END
>  <MODEL>
22

>  <REMARK>
 VINA RESULT:    -5.403      3.049      8.100
 INTER + INTRA:          -4.686
 INTER:                  -4.761
 INTRA:                   0.074
 UNBOUND:                 2.138
  Name = 
  6 active torsions:
  status: ('A' for Active; 'I' for Inactive)
    1  A    between atoms: C_1  and  C_2
    2  A    between atoms: C_5  and  C_6
    3  A    between atoms: C_7  and  S_8
    4  A    between atoms: S_8  and  N_11
    5  A    between atoms: C_15  and  C_17
    6  A    between atoms: C_20  and  C_21
                            x       y       z     vdW  Elec       q    Type
                         _______ _______ _______ _____ _____    ______ ____

>  <TORSDO>
F 6

$$$$
=
 OpenBabel07192307433D

 49 52  0  0  0  0  0  0  0  0999 V2000
   -0.5170   11.2040   20.0500 N   0  0  0  0  0  0  0  0  0  0  0  0
   -1.2170   12.3660   19.3840 C   0  0  0  0  0  0  0  0  0  0  0  0
   -0.4590   12.8760   18.1510 C   0  0  0  0  0  0  0  0  0  0  0  0
    0.9550   13.0690   18.4650 N   0  0  0  0  0  0  0  0  0  0  0  0
    1.3600   14.3530   18.8600 C   0  0  0  0  0  0  0  0  0  0  0  0
    0.5340   15.2620   18.9610 O   0  0  0  0  0  0  0  0  0  0  0  0
    1.6460   11.8570   18.9370 C   0  0  0  0  0  0  0  0  0  0  0  0
    0.6690   10.7130   19.2750 C   0  0  0  0  0  0  0  0  0  0  0  0
   -1.3360   13.1970   20.0860 H   0  0  0  0  0  0  0  0  0  0  0  0
   -2.2210   12.0370   19.0970 H   0  0  0  0  0  0  0  0  0  0  0  0
   -0.9130   13.8030   17.7850 H   0  0  0  0  0  0  0  0  0  0  0  0
   -0.5190   12.1520   17.3300 H   0  0  0  0  0  0  0  0  0  0  0  0
    2.3190   11.5250   18.1410 H   0  0  0  0  0  0  0  0  0  0  0  0
    2.2460   12.0930   19.8210 H   0  0  0  0  0  0  0  0  0  0  0  0
    1.1880    9.9100   19.8090 H   0  0  0  0  0  0  0  0  0  0  0  0
    0.2910   10.2510   18.3530 H   0  0  0  0  0  0  0  0  0  0  0  0
    2.7640   14.5870   19.1560 C   0  0  0  0  0  0  0  0  0  0  0  0
    3.8250   14.5590   18.2450 C   0  0  0  0  0  0  0  0  0  0  0  0
    5.0110   14.7550   18.9390 C   0  0  0  0  0  0  0  0  0  0  0  0
    6.3600   14.8410   18.6340 C   0  0  0  0  0  0  0  0  0  0  0  0
    7.0590   15.0360   19.7760 N   0  0  0  0  0  0  0  0  0  0  0  0
    6.1030   15.0680   20.8160 O   0  0  0  0  0  0  0  0  0  0  0  0
    4.8880   14.8940   20.2620 C   0  0  0  0  0  0  0  0  0  0  0  0
    3.3210   14.7930   20.8050 S   0  0  0  0  0  0  0  0  0  0  0  0
    3.6970   14.4100   17.1800 H   0  0  0  0  0  0  0  0  0  0  0  0
    7.0580   14.7420   17.3350 C   0  0  0  0  0  0  0  0  0  0  0  0
    6.5370   15.3370   16.5780 H   0  0  0  0  0  0  0  0  0  0  0  0
    7.0960   13.7030   16.9920 H   0  0  0  0  0  0  0  0  0  0  0  0
    8.0870   15.1090   17.4050 H   0  0  0  0  0  0  0  0  0  0  0  0
   -0.1990   11.4030   21.7220 S   0  0  0  0  0  0  0  0  0  0  0  0
    1.1330   11.9640   21.8360 O   0  0  0  0  0  0  0  0  0  0  0  0
   -0.5270   10.1630   22.3950 O   0  0  0  0  0  0  0  0  0  0  0  0
   -3.7150   13.1380   22.7490 C   0  0  0  0  0  0  0  0  0  0  0  0
   -3.3570   14.4720   22.9550 C   0  0  0  0  0  0  0  0  0  0  0  0
   -2.0310   14.8850   22.8000 C   0  0  0  0  0  0  0  0  0  0  0  0
   -1.0240   13.9770   22.4330 C   0  0  0  0  0  0  0  0  0  0  0  0
   -1.3930   12.6360   22.2130 C   0  0  0  0  0  0  0  0  0  0  0  0
   -2.7300   12.2260   22.3600 C   0  0  0  0  0  0  0  0  0  0  0  0
   -4.1120   15.2050   23.2340 H   0  0  0  0  0  0  0  0  0  0  0  0
   -1.7900   15.9340   22.9620 H   0  0  0  0  0  0  0  0  0  0  0  0
   -3.0070   11.1880   22.1750 H   0  0  0  0  0  0  0  0  0  0  0  0
   -5.1470   12.7080   22.8810 C   0  0  0  0  0  0  0  0  0  0  0  0
   -5.2880   11.7030   22.4720 H   0  0  0  0  0  0  0  0  0  0  0  0
   -5.4430   12.7100   23.9360 H   0  0  0  0  0  0  0  0  0  0  0  0
   -5.8130   13.3800   22.3280 H   0  0  0  0  0  0  0  0  0  0  0  0
    0.3770   14.4950   22.2530 C   0  0  0  0  0  0  0  0  0  0  0  0
    1.0060   14.1980   23.0970 H   0  0  0  0  0  0  0  0  0  0  0  0
    0.8350   14.0880   21.3440 H   0  0  0  0  0  0  0  0  0  0  0  0
    0.3890   15.5820   22.1430 H   0  0  0  0  0  0  0  0  0  0  0  0
  1 30  1  0  0  0  0
  2  1  1  0  0  0  0
  2  9  1  0  0  0  0
  3  4  1  0  0  0  0
  3  2  1  0  0  0  0
  4  5  1  0  0  0  0
  4  7  1  0  0  0  0
  5  6  2  0  0  0  0
  5 17  1  0  0  0  0
  7  8  1  0  0  0  0
  7 14  1  0  0  0  0
  8 15  1  0  0  0  0
  8  1  1  0  0  0  0
 10  2  1  0  0  0  0
 11  3  1  0  0  0  0
 12  3  1  0  0  0  0
 13  7  1  0  0  0  0
 16  8  1  0  0  0  0
 17 24  1  0  0  0  0
 18 19  1  0  0  0  0
 18 17  2  0  0  0  0
 19 23  2  0  0  0  0
 20 19  1  0  0  0  0
 20 21  2  0  0  0  0
 21 22  1  0  0  0  0
 23 24  1  0  0  0  0
 23 22  1  0  0  0  0
 25 18  1  0  0  0  0
 26 29  1  0  0  0  0
 26 20  1  0  0  0  0
 27 26  1  0  0  0  0
 28 26  1  0  0  0  0
 30 31  2  0  0  0  0
 30 37  1  0  0  0  0
 30 32  2  0  0  0  0
 33 42  1  0  0  0  0
 33 34  1  0  0  0  0
 34 39  1  0  0  0  0
 35 34  2  0  0  0  0
 35 40  1  0  0  0  0
 36 35  1  0  0  0  0
 37 38  1  0  0  0  0
 37 36  2  0  0  0  0
 38 33  2  0  0  0  0
 41 38  1  0  0  0  0
 42 44  1  0  0  0  0
 43 42  1  0  0  0  0
 45 42  1  0  0  0  0
 46 36  1  0  0  0  0
 46 47  1  0  0  0  0
 48 46  1  0  0  0  0
 49 46  1  0  0  0  0
M  END
>  <MODEL>
23

>  <REMARK>
 VINA RESULT:    -5.349      7.230     10.764
 INTER + INTRA:          -4.619
 INTER:                  -5.314
 INTRA:                   0.695
 UNBOUND:                 2.138
  Name = 
  6 active torsions:
  status: ('A' for Active; 'I' for Inactive)
    1  A    between atoms: C_1  and  C_2
    2  A    between atoms: C_5  and  C_6
    3  A    between atoms: C_7  and  S_8
    4  A    between atoms: S_8  and  N_11
    5  A    between atoms: C_15  and  C_17
    6  A    between atoms: C_20  and  C_21
                            x       y       z     vdW  Elec       q    Type
                         _______ _______ _______ _____ _____    ______ ____

>  <TORSDO>
F 6

$$$$
=
 OpenBabel07192307433D

 49 52  0  0  0  0  0  0  0  0999 V2000
    4.1960    4.7160   17.6920 N   0  0  0  0  0  0  0  0  0  0  0  0
    4.2210    5.7680   16.6070 C   0  0  0  0  0  0  0  0  0  0  0  0
    4.5650    7.1620   17.1530 C   0  0  0  0  0  0  0  0  0  0  0  0
    3.7510    7.4630   18.3280 N   0  0  0  0  0  0  0  0  0  0  0  0
    2.5610    8.1780   18.1240 C   0  0  0  0  0  0  0  0  0  0  0  0
    2.2180    8.5030   16.9860 O   0  0  0  0  0  0  0  0  0  0  0  0
    3.9010    6.5070   19.4370 C   0  0  0  0  0  0  0  0  0  0  0  0
    4.6620    5.2330   19.0200 C   0  0  0  0  0  0  0  0  0  0  0  0
    3.2510    5.8240   16.1030 H   0  0  0  0  0  0  0  0  0  0  0  0
    4.9600    5.4670   15.8580 H   0  0  0  0  0  0  0  0  0  0  0  0
    4.4280    7.9170   16.3720 H   0  0  0  0  0  0  0  0  0  0  0  0
    5.6160    7.2110   17.4570 H   0  0  0  0  0  0  0  0  0  0  0  0
    4.4570    7.0060   20.2370 H   0  0  0  0  0  0  0  0  0  0  0  0
    2.9160    6.2290   19.8240 H   0  0  0  0  0  0  0  0  0  0  0  0
    4.5800    4.4640   19.7950 H   0  0  0  0  0  0  0  0  0  0  0  0
    5.7370    5.4430   18.9320 H   0  0  0  0  0  0  0  0  0  0  0  0
    1.7380    8.5190   19.2740 C   0  0  0  0  0  0  0  0  0  0  0  0
    1.0840    9.7340   19.5020 C   0  0  0  0  0  0  0  0  0  0  0  0
    0.4730    9.6820   20.7470 C   0  0  0  0  0  0  0  0  0  0  0  0
   -0.3050   10.5210   21.5280 C   0  0  0  0  0  0  0  0  0  0  0  0
   -0.5990    9.8950   22.6910 N   0  0  0  0  0  0  0  0  0  0  0  0
    0.0240    8.6280   22.6180 O   0  0  0  0  0  0  0  0  0  0  0  0
    0.6560    8.5500   21.4310 C   0  0  0  0  0  0  0  0  0  0  0  0
    1.5960    7.4310   20.6410 S   0  0  0  0  0  0  0  0  0  0  0  0
    1.0780   10.5540   18.7940 H   0  0  0  0  0  0  0  0  0  0  0  0
   -0.7950   11.8920   21.2700 C   0  0  0  0  0  0  0  0  0  0  0  0
   -0.0110   12.6220   21.4900 H   0  0  0  0  0  0  0  0  0  0  0  0
   -1.6650   12.1190   21.8950 H   0  0  0  0  0  0  0  0  0  0  0  0
   -1.0940   12.0190   20.2240 H   0  0  0  0  0  0  0  0  0  0  0  0
    2.7520    3.7990   17.7890 S   0  0  0  0  0  0  0  0  0  0  0  0
    2.8430    2.7580   16.7840 O   0  0  0  0  0  0  0  0  0  0  0  0
    1.6330    4.7180   17.7850 O   0  0  0  0  0  0  0  0  0  0  0  0
    4.1850    1.7490   20.9780 C   0  0  0  0  0  0  0  0  0  0  0  0
    3.1370    1.8270   21.8970 C   0  0  0  0  0  0  0  0  0  0  0  0
    1.9620    2.5170   21.5800 C   0  0  0  0  0  0  0  0  0  0  0  0
    1.8020    3.1480   20.3360 C   0  0  0  0  0  0  0  0  0  0  0  0
    2.8570    3.0540   19.4080 C   0  0  0  0  0  0  0  0  0  0  0  0
    4.0330    2.3510   19.7250 C   0  0  0  0  0  0  0  0  0  0  0  0
    3.2230    1.3450   22.8690 H   0  0  0  0  0  0  0  0  0  0  0  0
    1.1640    2.5520   22.3190 H   0  0  0  0  0  0  0  0  0  0  0  0
    4.8380    2.2730   18.9950 H   0  0  0  0  0  0  0  0  0  0  0  0
    5.4280    0.9760   21.3100 C   0  0  0  0  0  0  0  0  0  0  0  0
    5.2100   -0.0940   21.3820 H   0  0  0  0  0  0  0  0  0  0  0  0
    6.1870    1.1360   20.5350 H   0  0  0  0  0  0  0  0  0  0  0  0
    5.8410    1.2890   22.2750 H   0  0  0  0  0  0  0  0  0  0  0  0
    0.5010    3.8470   20.0480 C   0  0  0  0  0  0  0  0  0  0  0  0
   -0.3340    3.1440   20.1210 H   0  0  0  0  0  0  0  0  0  0  0  0
    0.3170    4.6510   20.7690 H   0  0  0  0  0  0  0  0  0  0  0  0
    0.5110    4.3150   19.0610 H   0  0  0  0  0  0  0  0  0  0  0  0
  1 30  1  0  0  0  0
  1  8  1  0  0  0  0
  2  3  1  0  0  0  0
  2  1  1  0  0  0  0
  3 12  1  0  0  0  0
  3  4  1  0  0  0  0
  4  7  1  0  0  0  0
  5  4  1  0  0  0  0
  5 17  1  0  0  0  0
  6  5  2  0  0  0  0
  7 14  1  0  0  0  0
  7 13  1  0  0  0  0
  8  7  1  0  0  0  0
  8 15  1  0  0  0  0
  9  2  1  0  0  0  0
 10  2  1  0  0  0  0
 11  3  1  0  0  0  0
 16  8  1  0  0  0  0
 17 18  2  0  0  0  0
 17 24  1  0  0  0  0
 18 19  1  0  0  0  0
 19 23  2  0  0  0  0
 19 20  1  0  0  0  0
 20 21  2  0  0  0  0
 22 21  1  0  0  0  0
 23 22  1  0  0  0  0
 24 23  1  0  0  0  0
 25 18  1  0  0  0  0
 26 27  1  0  0  0  0
 26 20  1  0  0  0  0
 26 28  1  0  0  0  0
 29 26  1  0  0  0  0
 30 37  1  0  0  0  0
 31 30  2  0  0  0  0
 32 30  2  0  0  0  0
 33 42  1  0  0  0  0
 33 34  1  0  0  0  0
 34 39  1  0  0  0  0
 35 34  2  0  0  0  0
 35 40  1  0  0  0  0
 36 35  1  0  0  0  0
 37 38  1  0  0  0  0
 37 36  2  0  0  0  0
 38 33  2  0  0  0  0
 41 38  1  0  0  0  0
 42 43  1  0  0  0  0
 42 45  1  0  0  0  0
 44 42  1  0  0  0  0
 46 47  1  0  0  0  0
 46 36  1  0  0  0  0
 46 48  1  0  0  0  0
 49 46  1  0  0  0  0
M  END
>  <MODEL>
24

>  <REMARK>
 VINA RESULT:    -5.342      2.676      4.894
 INTER + INTRA:          -4.610
 INTER:                  -5.895
 INTRA:                   1.286
 UNBOUND:                 2.138
  Name = 
  6 active torsions:
  status: ('A' for Active; 'I' for Inactive)
    1  A    between atoms: C_1  and  C_2
    2  A    between atoms: C_5  and  C_6
    3  A    between atoms: C_7  and  S_8
    4  A    between atoms: S_8  and  N_11
    5  A    between atoms: C_15  and  C_17
    6  A    between atoms: C_20  and  C_21
                            x       y       z     vdW  Elec       q    Type
                         _______ _______ _______ _____ _____    ______ ____

>  <TORSDO>
F 6

$$$$
=
 OpenBabel07192307433D

 49 52  0  0  0  0  0  0  0  0999 V2000
    1.9270   12.1260   19.0490 N   0  0  0  0  0  0  0  0  0  0  0  0
    1.7710   13.4640   18.3630 C   0  0  0  0  0  0  0  0  0  0  0  0
    1.5360   14.6090   19.3600 C   0  0  0  0  0  0  0  0  0  0  0  0
    0.4920   14.2450   20.3160 N   0  0  0  0  0  0  0  0  0  0  0  0
   -0.8200   14.6480   20.0220 C   0  0  0  0  0  0  0  0  0  0  0  0
   -1.0660   15.2570   18.9800 O   0  0  0  0  0  0  0  0  0  0  0  0
    0.7750   13.0300   21.0970 C   0  0  0  0  0  0  0  0  0  0  0  0
    1.9740   12.2360   20.5430 C   0  0  0  0  0  0  0  0  0  0  0  0
    0.9320   13.4410   17.6610 H   0  0  0  0  0  0  0  0  0  0  0  0
    2.6780   13.6560   17.7810 H   0  0  0  0  0  0  0  0  0  0  0  0
    1.2820   15.5290   18.8260 H   0  0  0  0  0  0  0  0  0  0  0  0
    2.4470   14.8190   19.9320 H   0  0  0  0  0  0  0  0  0  0  0  0
    0.9960   13.3370   22.1240 H   0  0  0  0  0  0  0  0  0  0  0  0
   -0.1090   12.3850   21.1130 H   0  0  0  0  0  0  0  0  0  0  0  0
    2.0310   11.2480   21.0120 H   0  0  0  0  0  0  0  0  0  0  0  0
    2.9160   12.7370   20.8060 H   0  0  0  0  0  0  0  0  0  0  0  0
   -1.8810   14.3260   20.9630 C   0  0  0  0  0  0  0  0  0  0  0  0
   -1.9730   14.7480   22.2940 C   0  0  0  0  0  0  0  0  0  0  0  0
   -3.0920   14.1610   22.8690 C   0  0  0  0  0  0  0  0  0  0  0  0
   -3.7200   14.1750   24.1040 C   0  0  0  0  0  0  0  0  0  0  0  0
   -4.8010   13.3630   24.0580 N   0  0  0  0  0  0  0  0  0  0  0  0
   -4.8330   12.8330   22.7480 O   0  0  0  0  0  0  0  0  0  0  0  0
   -3.7850   13.3420   22.0740 C   0  0  0  0  0  0  0  0  0  0  0  0
   -3.1490   13.1900   20.5460 S   0  0  0  0  0  0  0  0  0  0  0  0
   -1.2680   15.4270   22.7580 H   0  0  0  0  0  0  0  0  0  0  0  0
   -3.3740   14.8940   25.3480 C   0  0  0  0  0  0  0  0  0  0  0  0
   -2.3990   15.3810   25.2460 H   0  0  0  0  0  0  0  0  0  0  0  0
   -3.3280   14.2030   26.1970 H   0  0  0  0  0  0  0  0  0  0  0  0
   -4.1150   15.6640   25.5840 H   0  0  0  0  0  0  0  0  0  0  0  0
    0.8770   10.8930   18.4920 S   0  0  0  0  0  0  0  0  0  0  0  0
    1.5140   10.2820   17.3410 O   0  0  0  0  0  0  0  0  0  0  0  0
   -0.4540   11.4510   18.3760 O   0  0  0  0  0  0  0  0  0  0  0  0
    0.1320    9.2120   22.1040 C   0  0  0  0  0  0  0  0  0  0  0  0
    0.8190    7.9990   22.0320 C   0  0  0  0  0  0  0  0  0  0  0  0
    1.5230    7.6460   20.8760 C   0  0  0  0  0  0  0  0  0  0  0  0
    1.5600    8.4970   19.7600 C   0  0  0  0  0  0  0  0  0  0  0  0
    0.8770    9.7260   19.8430 C   0  0  0  0  0  0  0  0  0  0  0  0
    0.1790   10.0820   21.0100 C   0  0  0  0  0  0  0  0  0  0  0  0
    0.8170    7.3170   22.8810 H   0  0  0  0  0  0  0  0  0  0  0  0
    2.0520    6.6950   20.8590 H   0  0  0  0  0  0  0  0  0  0  0  0
   -0.3360   11.0410   21.0690 H   0  0  0  0  0  0  0  0  0  0  0  0
   -0.5910    9.6010   23.3600 C   0  0  0  0  0  0  0  0  0  0  0  0
   -1.6730    9.6040   23.1980 H   0  0  0  0  0  0  0  0  0  0  0  0
   -0.3520    8.8960   24.1640 H   0  0  0  0  0  0  0  0  0  0  0  0
   -0.3090   10.6100   23.6820 H   0  0  0  0  0  0  0  0  0  0  0  0
    2.3620    8.0700   18.5600 C   0  0  0  0  0  0  0  0  0  0  0  0
    2.1540    8.7250   17.7090 H   0  0  0  0  0  0  0  0  0  0  0  0
    3.4380    8.1270   18.7630 H   0  0  0  0  0  0  0  0  0  0  0  0
    2.1540    7.0310   18.2920 H   0  0  0  0  0  0  0  0  0  0  0  0
  1  8  1  0  0  0  0
  2  1  1  0  0  0  0
  2  3  1  0  0  0  0
  3 12  1  0  0  0  0
  3  4  1  0  0  0  0
  4  7  1  0  0  0  0
  5  4  1  0  0  0  0
  5 17  1  0  0  0  0
  6  5  2  0  0  0  0
  7 14  1  0  0  0  0
  7 13  1  0  0  0  0
  8 16  1  0  0  0  0
  8 15  1  0  0  0  0
  8  7  1  0  0  0  0
  9  2  1  0  0  0  0
 10  2  1  0  0  0  0
 11  3  1  0  0  0  0
 17 18  2  0  0  0  0
 18 25  1  0  0  0  0
 18 19  1  0  0  0  0
 19 20  1  0  0  0  0
 20 26  1  0  0  0  0
 21 20  2  0  0  0  0
 22 21  1  0  0  0  0
 23 22  1  0  0  0  0
 23 19  2  0  0  0  0
 24 17  1  0  0  0  0
 24 23  1  0  0  0  0
 26 29  1  0  0  0  0
 26 28  1  0  0  0  0
 27 26  1  0  0  0  0
 30  1  1  0  0  0  0
 30 37  1  0  0  0  0
 31 30  2  0  0  0  0
 32 30  2  0  0  0  0
 33 42  1  0  0  0  0
 34 33  1  0  0  0  0
 34 39  1  0  0  0  0
 35 34  2  0  0  0  0
 36 37  2  0  0  0  0
 36 35  1  0  0  0  0
 37 38  1  0  0  0  0
 38 41  1  0  0  0  0
 38 33  2  0  0  0  0
 40 35  1  0  0  0  0
 42 45  1  0  0  0  0
 42 44  1  0  0  0  0
 43 42  1  0  0  0  0
 46 48  1  0  0  0  0
 46 36  1  0  0  0  0
 47 46  1  0  0  0  0
 49 46  1  0  0  0  0
M  END
>  <MODEL>
25

>  <REMARK>
 VINA RESULT:    -5.293      5.344      8.816
 INTER + INTRA:          -4.548
 INTER:                  -5.619
 INTRA:                   1.071
 UNBOUND:                 2.138
  Name = 
  6 active torsions:
  status: ('A' for Active; 'I' for Inactive)
    1  A    between atoms: C_1  and  C_2
    2  A    between atoms: C_5  and  C_6
    3  A    between atoms: C_7  and  S_8
    4  A    between atoms: S_8  and  N_11
    5  A    between atoms: C_15  and  C_17
    6  A    between atoms: C_20  and  C_21
                            x       y       z     vdW  Elec       q    Type
                         _______ _______ _______ _____ _____    ______ ____

>  <TORSDO>
F 6

$$$$
=
 OpenBabel07192307433D

 49 52  0  0  0  0  0  0  0  0999 V2000
    5.3430    3.6920   17.8490 N   0  0  0  0  0  0  0  0  0  0  0  0
    5.7890    4.5500   16.6880 C   0  0  0  0  0  0  0  0  0  0  0  0
    6.0950    5.9940   17.1120 C   0  0  0  0  0  0  0  0  0  0  0  0
    5.0080    6.5260   17.9300 N   0  0  0  0  0  0  0  0  0  0  0  0
    4.0070    7.2610   17.2750 C   0  0  0  0  0  0  0  0  0  0  0  0
    4.0460    7.4140   16.0530 O   0  0  0  0  0  0  0  0  0  0  0  0
    4.7310    5.7570   19.1540 C   0  0  0  0  0  0  0  0  0  0  0  0
    5.4490    4.3930   19.1700 C   0  0  0  0  0  0  0  0  0  0  0  0
    5.0190    4.5740   15.9100 H   0  0  0  0  0  0  0  0  0  0  0  0
    6.6810    4.0920   16.2490 H   0  0  0  0  0  0  0  0  0  0  0  0
    6.2690    6.6180   16.2290 H   0  0  0  0  0  0  0  0  0  0  0  0
    7.0110    6.0360   17.7120 H   0  0  0  0  0  0  0  0  0  0  0  0
    5.0760    6.3500   20.0070 H   0  0  0  0  0  0  0  0  0  0  0  0
    3.6530    5.5990   19.2570 H   0  0  0  0  0  0  0  0  0  0  0  0
    5.0680    3.7670   19.9840 H   0  0  0  0  0  0  0  0  0  0  0  0
    6.5180    4.5290   19.3860 H   0  0  0  0  0  0  0  0  0  0  0  0
    2.9230    7.8270   18.0610 C   0  0  0  0  0  0  0  0  0  0  0  0
    2.0800    8.8790   17.6840 C   0  0  0  0  0  0  0  0  0  0  0  0
    1.2320    9.1690   18.7440 C   0  0  0  0  0  0  0  0  0  0  0  0
    0.2020   10.0590   19.0020 C   0  0  0  0  0  0  0  0  0  0  0  0
   -0.2450    9.8640   20.2630 N   0  0  0  0  0  0  0  0  0  0  0  0
    0.5420    8.8170   20.7960 O   0  0  0  0  0  0  0  0  0  0  0  0
    1.4150    8.4350   19.8450 C   0  0  0  0  0  0  0  0  0  0  0  0
    2.6400    7.3210   19.7150 S   0  0  0  0  0  0  0  0  0  0  0  0
    2.1150    9.3570   16.7130 H   0  0  0  0  0  0  0  0  0  0  0  0
   -0.3990   11.1040   18.1460 C   0  0  0  0  0  0  0  0  0  0  0  0
    0.1460   11.1800   17.2000 H   0  0  0  0  0  0  0  0  0  0  0  0
   -0.3660   12.0800   18.6430 H   0  0  0  0  0  0  0  0  0  0  0  0
   -1.4460   10.8810   17.9180 H   0  0  0  0  0  0  0  0  0  0  0  0
    3.8490    2.8820   17.6290 S   0  0  0  0  0  0  0  0  0  0  0  0
    4.1570    1.4870   17.3820 O   0  0  0  0  0  0  0  0  0  0  0  0
    3.0650    3.6340   16.6730 O   0  0  0  0  0  0  0  0  0  0  0  0
    1.3250    4.0740   20.5660 C   0  0  0  0  0  0  0  0  0  0  0  0
    1.7860    3.3700   21.6810 C   0  0  0  0  0  0  0  0  0  0  0  0
    2.8740    2.4990   21.5720 C   0  0  0  0  0  0  0  0  0  0  0  0
    3.5330    2.3080   20.3460 C   0  0  0  0  0  0  0  0  0  0  0  0
    3.0720    3.0310   19.2290 C   0  0  0  0  0  0  0  0  0  0  0  0
    1.9840    3.9140   19.3440 C   0  0  0  0  0  0  0  0  0  0  0  0
    1.3030    3.4980   22.6480 H   0  0  0  0  0  0  0  0  0  0  0  0
    3.2100    1.9710   22.4620 H   0  0  0  0  0  0  0  0  0  0  0  0
    1.6440    4.4800   18.4770 H   0  0  0  0  0  0  0  0  0  0  0  0
    0.1800    5.0360   20.6980 C   0  0  0  0  0  0  0  0  0  0  0  0
    0.5270    6.0680   20.5890 H   0  0  0  0  0  0  0  0  0  0  0  0
   -0.5740    4.8280   19.9310 H   0  0  0  0  0  0  0  0  0  0  0  0
   -0.2910    4.9550   21.6840 H   0  0  0  0  0  0  0  0  0  0  0  0
    4.7160    1.3790   20.3060 C   0  0  0  0  0  0  0  0  0  0  0  0
    5.4520    1.6650   21.0620 H   0  0  0  0  0  0  0  0  0  0  0  0
    4.4150    0.3460   20.5150 H   0  0  0  0  0  0  0  0  0  0  0  0
    5.1810    1.3700   19.3160 H   0  0  0  0  0  0  0  0  0  0  0  0
  1  8  1  0  0  0  0
  2  3  1  0  0  0  0
  2  1  1  0  0  0  0
  3 12  1  0  0  0  0
  3  4  1  0  0  0  0
  4  7  1  0  0  0  0
  5  4  1  0  0  0  0
  5 17  1  0  0  0  0
  6  5  2  0  0  0  0
  7  8  1  0  0  0  0
  7 14  1  0  0  0  0
  7 13  1  0  0  0  0
  8 16  1  0  0  0  0
  8 15  1  0  0  0  0
  9  2  1  0  0  0  0
 10  2  1  0  0  0  0
 11  3  1  0  0  0  0
 17 24  1  0  0  0  0
 18 17  2  0  0  0  0
 18 19  1  0  0  0  0
 19 20  1  0  0  0  0
 19 23  2  0  0  0  0
 20 21  2  0  0  0  0
 21 22  1  0  0  0  0
 23 22  1  0  0  0  0
 24 23  1  0  0  0  0
 25 18  1  0  0  0  0
 26 28  1  0  0  0  0
 26 20  1  0  0  0  0
 27 26  1  0  0  0  0
 29 26  1  0  0  0  0
 30  1  1  0  0  0  0
 30 37  1  0  0  0  0
 31 30  2  0  0  0  0
 32 30  2  0  0  0  0
 33 42  1  0  0  0  0
 33 34  1  0  0  0  0
 34 39  1  0  0  0  0
 35 34  2  0  0  0  0
 35 40  1  0  0  0  0
 36 35  1  0  0  0  0
 37 38  1  0  0  0  0
 37 36  2  0  0  0  0
 38 33  2  0  0  0  0
 41 38  1  0  0  0  0
 42 45  1  0  0  0  0
 43 42  1  0  0  0  0
 44 42  1  0  0  0  0
 46 36  1  0  0  0  0
 46 48  1  0  0  0  0
 46 47  1  0  0  0  0
 49 46  1  0  0  0  0
M  END
>  <MODEL>
26

>  <REMARK>
 VINA RESULT:    -5.186      2.413      5.015
 INTER + INTRA:          -4.412
 INTER:                  -6.345
 INTRA:                   1.932
 UNBOUND:                 2.138
  Name = 
  6 active torsions:
  status: ('A' for Active; 'I' for Inactive)
    1  A    between atoms: C_1  and  C_2
    2  A    between atoms: C_5  and  C_6
    3  A    between atoms: C_7  and  S_8
    4  A    between atoms: S_8  and  N_11
    5  A    between atoms: C_15  and  C_17
    6  A    between atoms: C_20  and  C_21
                            x       y       z     vdW  Elec       q    Type
                         _______ _______ _______ _____ _____    ______ ____

>  <TORSDO>
F 6

$$$$
=
 OpenBabel07192307433D

 49 52  0  0  0  0  0  0  0  0999 V2000
   -0.7660   11.8570   21.7730 N   0  0  0  0  0  0  0  0  0  0  0  0
   -1.4160   10.7190   22.5270 C   0  0  0  0  0  0  0  0  0  0  0  0
   -0.3880    9.7310   23.0960 C   0  0  0  0  0  0  0  0  0  0  0  0
    0.5810    9.3560   22.0690 N   0  0  0  0  0  0  0  0  0  0  0  0
    0.3260    8.1860   21.3370 C   0  0  0  0  0  0  0  0  0  0  0  0
   -0.6970    7.5310   21.5470 O   0  0  0  0  0  0  0  0  0  0  0  0
    1.3280   10.4860   21.4910 C   0  0  0  0  0  0  0  0  0  0  0  0
    0.7290   11.8520   21.8820 C   0  0  0  0  0  0  0  0  0  0  0  0
   -2.1010   10.1680   21.8750 H   0  0  0  0  0  0  0  0  0  0  0  0
   -2.0130   11.1470   23.3380 H   0  0  0  0  0  0  0  0  0  0  0  0
   -0.8950    8.8510   23.5030 H   0  0  0  0  0  0  0  0  0  0  0  0
    0.1690   10.1840   23.9250 H   0  0  0  0  0  0  0  0  0  0  0  0
    2.3570   10.4300   21.8600 H   0  0  0  0  0  0  0  0  0  0  0  0
    1.3470   10.3990   20.4010 H   0  0  0  0  0  0  0  0  0  0  0  0
    1.1730   12.6520   21.2810 H   0  0  0  0  0  0  0  0  0  0  0  0
    0.9840   12.0940   22.9230 H   0  0  0  0  0  0  0  0  0  0  0  0
    1.2810    7.7680   20.3230 C   0  0  0  0  0  0  0  0  0  0  0  0
    2.1260    6.6550   20.3820 C   0  0  0  0  0  0  0  0  0  0  0  0
    2.9360    6.6520   19.2550 C   0  0  0  0  0  0  0  0  0  0  0  0
    3.9380    5.8520   18.7310 C   0  0  0  0  0  0  0  0  0  0  0  0
    4.3700    6.3910   17.5670 N   0  0  0  0  0  0  0  0  0  0  0  0
    3.6040    7.5640   17.3750 O   0  0  0  0  0  0  0  0  0  0  0  0
    2.7580    7.6770   18.4170 C   0  0  0  0  0  0  0  0  0  0  0  0
    1.5960    8.7560   18.9100 S   0  0  0  0  0  0  0  0  0  0  0  0
    2.1150    5.9350   21.1920 H   0  0  0  0  0  0  0  0  0  0  0  0
    4.5420    4.6070   19.2490 C   0  0  0  0  0  0  0  0  0  0  0  0
    5.3400    4.2660   18.5830 H   0  0  0  0  0  0  0  0  0  0  0  0
    3.7910    3.8120   19.3240 H   0  0  0  0  0  0  0  0  0  0  0  0
    4.9700    4.7550   20.2460 H   0  0  0  0  0  0  0  0  0  0  0  0
   -1.3290   12.0890   20.1720 S   0  0  0  0  0  0  0  0  0  0  0  0
   -2.5650   12.8410   20.2630 O   0  0  0  0  0  0  0  0  0  0  0  0
   -1.3040   10.8090   19.4940 O   0  0  0  0  0  0  0  0  0  0  0  0
    1.9830   13.2480   18.1440 C   0  0  0  0  0  0  0  0  0  0  0  0
    1.9720   14.6360   18.2930 C   0  0  0  0  0  0  0  0  0  0  0  0
    0.9480   15.2670   19.0070 C   0  0  0  0  0  0  0  0  0  0  0  0
   -0.0930   14.5280   19.5920 C   0  0  0  0  0  0  0  0  0  0  0  0
   -0.0690   13.1270   19.4500 C   0  0  0  0  0  0  0  0  0  0  0  0
    0.9670   12.4950   18.7400 C   0  0  0  0  0  0  0  0  0  0  0  0
    2.7660   15.2410   17.8590 H   0  0  0  0  0  0  0  0  0  0  0  0
    0.9760   16.3500   19.1090 H   0  0  0  0  0  0  0  0  0  0  0  0
    0.9840   11.4090   18.6470 H   0  0  0  0  0  0  0  0  0  0  0  0
    3.1040   12.5740   17.4080 C   0  0  0  0  0  0  0  0  0  0  0  0
    2.8170   12.3670   16.3720 H   0  0  0  0  0  0  0  0  0  0  0  0
    3.9940   13.2130   17.4120 H   0  0  0  0  0  0  0  0  0  0  0  0
    3.3590   11.6140   17.8710 H   0  0  0  0  0  0  0  0  0  0  0  0
   -1.1460   15.2670   20.3730 C   0  0  0  0  0  0  0  0  0  0  0  0
   -0.7350   15.6310   21.3190 H   0  0  0  0  0  0  0  0  0  0  0  0
   -1.5120   16.1380   19.8170 H   0  0  0  0  0  0  0  0  0  0  0  0
   -2.0170   14.6340   20.5630 H   0  0  0  0  0  0  0  0  0  0  0  0
  1  8  1  0  0  0  0
  1  2  1  0  0  0  0
  2  3  1  0  0  0  0
  2 10  1  0  0  0  0
  3 11  1  0  0  0  0
  3 12  1  0  0  0  0
  4  3  1  0  0  0  0
  5  6  2  0  0  0  0
  5  4  1  0  0  0  0
  7 13  1  0  0  0  0
  7  8  1  0  0  0  0
  7  4  1  0  0  0  0
  8 16  1  0  0  0  0
  9  2  1  0  0  0  0
 14  7  1  0  0  0  0
 15  8  1  0  0  0  0
 17 18  2  0  0  0  0
 17  5  1  0  0  0  0
 18 25  1  0  0  0  0
 19 18  1  0  0  0  0
 20 26  1  0  0  0  0
 20 19  1  0  0  0  0
 21 20  2  0  0  0  0
 22 21  1  0  0  0  0
 22 23  1  0  0  0  0
 23 24  1  0  0  0  0
 23 19  2  0  0  0  0
 24 17  1  0  0  0  0
 26 28  1  0  0  0  0
 26 29  1  0  0  0  0
 27 26  1  0  0  0  0
 30 31  2  0  0  0  0
 30  1  1  0  0  0  0
 32 30  2  0  0  0  0
 33 34  2  0  0  0  0
 33 38  1  0  0  0  0
 34 35  1  0  0  0  0
 35 40  1  0  0  0  0
 35 36  2  0  0  0  0
 36 46  1  0  0  0  0
 37 36  1  0  0  0  0
 37 30  1  0  0  0  0
 38 37  2  0  0  0  0
 39 34  1  0  0  0  0
 41 38  1  0  0  0  0
 42 44  1  0  0  0  0
 42 45  1  0  0  0  0
 42 33  1  0  0  0  0
 43 42  1  0  0  0  0
 46 49  1  0  0  0  0
 46 47  1  0  0  0  0
 48 46  1  0  0  0  0
M  END
>  <MODEL>
27

>  <REMARK>
 VINA RESULT:    -5.166      3.432      8.503
 INTER + INTRA:          -4.387
 INTER:                  -4.822
 INTRA:                   0.436
 UNBOUND:                 2.138
  Name = 
  6 active torsions:
  status: ('A' for Active; 'I' for Inactive)
    1  A    between atoms: C_1  and  C_2
    2  A    between atoms: C_5  and  C_6
    3  A    between atoms: C_7  and  S_8
    4  A    between atoms: S_8  and  N_11
    5  A    between atoms: C_15  and  C_17
    6  A    between atoms: C_20  and  C_21
                            x       y       z     vdW  Elec       q    Type
                         _______ _______ _______ _____ _____    ______ ____

>  <TORSDO>
F 6

$$$$
=
 OpenBabel07192307433D

 49 52  0  0  0  0  0  0  0  0999 V2000
   -0.1330    9.9620   20.8030 N   0  0  0  0  0  0  0  0  0  0  0  0
   -0.6620    8.6270   21.2730 C   0  0  0  0  0  0  0  0  0  0  0  0
    0.4420    7.7350   21.8600 C   0  0  0  0  0  0  0  0  0  0  0  0
    1.5950    7.6940   20.9630 N   0  0  0  0  0  0  0  0  0  0  0  0
    1.6600    6.6360   20.0430 C   0  0  0  0  0  0  0  0  0  0  0  0
    0.7550    5.8010   19.9900 O   0  0  0  0  0  0  0  0  0  0  0  0
    2.1950    9.0080   20.6790 C   0  0  0  0  0  0  0  0  0  0  0  0
    1.3090   10.1770   21.1530 C   0  0  0  0  0  0  0  0  0  0  0  0
   -1.1380    8.0890   20.4480 H   0  0  0  0  0  0  0  0  0  0  0  0
   -1.4320    8.8140   22.0280 H   0  0  0  0  0  0  0  0  0  0  0  0
    0.0530    6.7300   22.0520 H   0  0  0  0  0  0  0  0  0  0  0  0
    0.7870    8.1270   22.8230 H   0  0  0  0  0  0  0  0  0  0  0  0
    3.1560    9.0560   21.2000 H   0  0  0  0  0  0  0  0  0  0  0  0
    2.3790    9.1070   19.6050 H   0  0  0  0  0  0  0  0  0  0  0  0
    1.6780   11.1270   20.7510 H   0  0  0  0  0  0  0  0  0  0  0  0
    1.3700   10.2810   22.2450 H   0  0  0  0  0  0  0  0  0  0  0  0
    2.8050    6.5490   19.1520 C   0  0  0  0  0  0  0  0  0  0  0  0
    3.9930    5.8480   19.3860 C   0  0  0  0  0  0  0  0  0  0  0  0
    4.8610    6.0810   18.3280 C   0  0  0  0  0  0  0  0  0  0  0  0
    6.1400    5.6920   17.9630 C   0  0  0  0  0  0  0  0  0  0  0  0
    6.4610    6.2770   16.7870 N   0  0  0  0  0  0  0  0  0  0  0  0
    5.3390    7.0550   16.4210 O   0  0  0  0  0  0  0  0  0  0  0  0
    4.4050    6.9040   17.3800 C   0  0  0  0  0  0  0  0  0  0  0  0
    2.8780    7.4880   17.6740 S   0  0  0  0  0  0  0  0  0  0  0  0
    4.1640    5.2320   20.2600 H   0  0  0  0  0  0  0  0  0  0  0  0
    7.1050    4.8060   18.6490 C   0  0  0  0  0  0  0  0  0  0  0  0
    7.5160    4.0760   17.9450 H   0  0  0  0  0  0  0  0  0  0  0  0
    6.6210    4.2630   19.4680 H   0  0  0  0  0  0  0  0  0  0  0  0
    7.9390    5.3750   19.0720 H   0  0  0  0  0  0  0  0  0  0  0  0
   -0.5040   10.3640   19.1790 S   0  0  0  0  0  0  0  0  0  0  0  0
   -1.9320   10.1800   19.0140 O   0  0  0  0  0  0  0  0  0  0  0  0
    0.4250    9.6640   18.3170 O   0  0  0  0  0  0  0  0  0  0  0  0
    1.4840   13.8310   18.5050 C   0  0  0  0  0  0  0  0  0  0  0  0
    0.5830   14.8010   18.9500 C   0  0  0  0  0  0  0  0  0  0  0  0
   -0.6650   14.4310   19.4600 C   0  0  0  0  0  0  0  0  0  0  0  0
   -1.0480   13.0820   19.5400 C   0  0  0  0  0  0  0  0  0  0  0  0
   -0.1300   12.1080   19.1020 C   0  0  0  0  0  0  0  0  0  0  0  0
    1.1290   12.4820   18.5990 C   0  0  0  0  0  0  0  0  0  0  0  0
    0.8480   15.8550   18.9100 H   0  0  0  0  0  0  0  0  0  0  0  0
   -1.3400   15.2130   19.8040 H   0  0  0  0  0  0  0  0  0  0  0  0
    1.8380   11.7200   18.2760 H   0  0  0  0  0  0  0  0  0  0  0  0
    2.8370   14.2320   17.9930 C   0  0  0  0  0  0  0  0  0  0  0  0
    3.2850   14.9930   18.6400 H   0  0  0  0  0  0  0  0  0  0  0  0
    3.4980   13.3590   17.9560 H   0  0  0  0  0  0  0  0  0  0  0  0
    2.7670   14.6630   16.9880 H   0  0  0  0  0  0  0  0  0  0  0  0
   -2.3940   12.7520   20.1280 C   0  0  0  0  0  0  0  0  0  0  0  0
   -3.1300   12.6000   19.3340 H   0  0  0  0  0  0  0  0  0  0  0  0
   -2.3510   11.8300   20.7180 H   0  0  0  0  0  0  0  0  0  0  0  0
   -2.7340   13.5380   20.8080 H   0  0  0  0  0  0  0  0  0  0  0  0
  1  8  1  0  0  0  0
  1  2  1  0  0  0  0
  2  3  1  0  0  0  0
  2 10  1  0  0  0  0
  3 11  1  0  0  0  0
  3 12  1  0  0  0  0
  4  3  1  0  0  0  0
  5  4  1  0  0  0  0
  6  5  2  0  0  0  0
  7  4  1  0  0  0  0
  7  8  1  0  0  0  0
  7 13  1  0  0  0  0
  8 16  1  0  0  0  0
  9  2  1  0  0  0  0
 14  7  1  0  0  0  0
 15  8  1  0  0  0  0
 17 18  2  0  0  0  0
 17  5  1  0  0  0  0
 18 25  1  0  0  0  0
 19 18  1  0  0  0  0
 20 19  1  0  0  0  0
 20 26  1  0  0  0  0
 21 20  2  0  0  0  0
 22 21  1  0  0  0  0
 22 23  1  0  0  0  0
 23 24  1  0  0  0  0
 23 19  2  0  0  0  0
 24 17  1  0  0  0  0
 26 29  1  0  0  0  0
 26 28  1  0  0  0  0
 27 26  1  0  0  0  0
 30  1  1  0  0  0  0
 31 30  2  0  0  0  0
 32 30  2  0  0  0  0
 33 38  2  0  0  0  0
 33 34  1  0  0  0  0
 34 35  2  0  0  0  0
 35 36  1  0  0  0  0
 35 40  1  0  0  0  0
 36 46  1  0  0  0  0
 37 30  1  0  0  0  0
 37 36  2  0  0  0  0
 38 37  1  0  0  0  0
 39 34  1  0  0  0  0
 41 38  1  0  0  0  0
 42 33  1  0  0  0  0
 42 43  1  0  0  0  0
 44 42  1  0  0  0  0
 45 42  1  0  0  0  0
 46 48  1  0  0  0  0
 46 49  1  0  0  0  0
 47 46  1  0  0  0  0
M  END
>  <MODEL>
28

>  <REMARK>
 VINA RESULT:    -5.111      3.191      8.281
 INTER + INTRA:          -4.318
 INTER:                  -4.551
 INTRA:                   0.233
 UNBOUND:                 2.138
  Name = 
  6 active torsions:
  status: ('A' for Active; 'I' for Inactive)
    1  A    between atoms: C_1  and  C_2
    2  A    between atoms: C_5  and  C_6
    3  A    between atoms: C_7  and  S_8
    4  A    between atoms: S_8  and  N_11
    5  A    between atoms: C_15  and  C_17
    6  A    between atoms: C_20  and  C_21
                            x       y       z     vdW  Elec       q    Type
                         _______ _______ _______ _____ _____    ______ ____

>  <TORSDO>
F 6

$$$$
=
 OpenBabel07192307433D

 49 52  0  0  0  0  0  0  0  0999 V2000
   -0.5300   13.9780   19.8130 N   0  0  0  0  0  0  0  0  0  0  0  0
    0.4000   14.2840   18.6610 C   0  0  0  0  0  0  0  0  0  0  0  0
    0.3280   13.2230   17.5530 C   0  0  0  0  0  0  0  0  0  0  0  0
    0.4280   11.8820   18.1250 N   0  0  0  0  0  0  0  0  0  0  0  0
    1.7010   11.2950   18.1760 C   0  0  0  0  0  0  0  0  0  0  0  0
    2.6880   11.9140   17.7760 O   0  0  0  0  0  0  0  0  0  0  0  0
   -0.6160   11.5600   19.1120 C   0  0  0  0  0  0  0  0  0  0  0  0
   -1.4200   12.8010   19.5490 C   0  0  0  0  0  0  0  0  0  0  0  0
    1.4350   14.3500   19.0100 H   0  0  0  0  0  0  0  0  0  0  0  0
    0.1290   15.2650   18.2580 H   0  0  0  0  0  0  0  0  0  0  0  0
    1.1150   13.3980   16.8120 H   0  0  0  0  0  0  0  0  0  0  0  0
   -0.6260   13.2840   17.0180 H   0  0  0  0  0  0  0  0  0  0  0  0
   -1.2990   10.8380   18.6530 H   0  0  0  0  0  0  0  0  0  0  0  0
   -0.1630   11.0950   19.9930 H   0  0  0  0  0  0  0  0  0  0  0  0
   -2.0410   12.5700   20.4210 H   0  0  0  0  0  0  0  0  0  0  0  0
   -2.1260   13.0930   18.7590 H   0  0  0  0  0  0  0  0  0  0  0  0
    1.8340    9.9500   18.7150 C   0  0  0  0  0  0  0  0  0  0  0  0
    2.3520    8.8330   18.0520 C   0  0  0  0  0  0  0  0  0  0  0  0
    2.2310    7.7290   18.8830 C   0  0  0  0  0  0  0  0  0  0  0  0
    2.5480    6.3810   18.8280 C   0  0  0  0  0  0  0  0  0  0  0  0
    2.1620    5.7890   19.9820 N   0  0  0  0  0  0  0  0  0  0  0  0
    1.5880    6.8120   20.7700 O   0  0  0  0  0  0  0  0  0  0  0  0
    1.6520    7.9580   20.0650 C   0  0  0  0  0  0  0  0  0  0  0  0
    1.1850    9.5360   20.2890 S   0  0  0  0  0  0  0  0  0  0  0  0
    2.7720    8.8690   17.0540 H   0  0  0  0  0  0  0  0  0  0  0  0
    3.1850    5.5880   17.7550 C   0  0  0  0  0  0  0  0  0  0  0  0
    4.2620    5.7800   17.7300 H   0  0  0  0  0  0  0  0  0  0  0  0
    2.7640    5.8470   16.7780 H   0  0  0  0  0  0  0  0  0  0  0  0
    3.0350    4.5150   17.9090 H   0  0  0  0  0  0  0  0  0  0  0  0
    0.2100   13.9360   21.3580 S   0  0  0  0  0  0  0  0  0  0  0  0
    0.0850   15.2650   21.9220 O   0  0  0  0  0  0  0  0  0  0  0  0
    1.5150   13.3240   21.2180 O   0  0  0  0  0  0  0  0  0  0  0  0
   -1.1340   10.5780   23.1880 C   0  0  0  0  0  0  0  0  0  0  0  0
   -2.3870   10.9640   23.6690 C   0  0  0  0  0  0  0  0  0  0  0  0
   -2.8590   12.2630   23.4620 C   0  0  0  0  0  0  0  0  0  0  0  0
   -2.0940   13.2140   22.7680 C   0  0  0  0  0  0  0  0  0  0  0  0
   -0.8370   12.8160   22.2730 C   0  0  0  0  0  0  0  0  0  0  0  0
   -0.3680   11.5050   22.4740 C   0  0  0  0  0  0  0  0  0  0  0  0
   -3.0110   10.2520   24.2060 H   0  0  0  0  0  0  0  0  0  0  0  0
   -3.8430   12.5270   23.8450 H   0  0  0  0  0  0  0  0  0  0  0  0
    0.6000   11.2030   22.0750 H   0  0  0  0  0  0  0  0  0  0  0  0
   -0.6480    9.1710   23.3810 C   0  0  0  0  0  0  0  0  0  0  0  0
    0.1300    9.1330   24.1500 H   0  0  0  0  0  0  0  0  0  0  0  0
   -1.4800    8.5250   23.6810 H   0  0  0  0  0  0  0  0  0  0  0  0
   -0.2100    8.7750   22.4580 H   0  0  0  0  0  0  0  0  0  0  0  0
   -2.6750   14.5850   22.5530 C   0  0  0  0  0  0  0  0  0  0  0  0
   -3.7680   14.5420   22.5630 H   0  0  0  0  0  0  0  0  0  0  0  0
   -2.3670   15.2740   23.3480 H   0  0  0  0  0  0  0  0  0  0  0  0
   -2.3260   15.0230   21.6140 H   0  0  0  0  0  0  0  0  0  0  0  0
  1 30  1  0  0  0  0
  2  9  1  0  0  0  0
  2  1  1  0  0  0  0
  3  4  1  0  0  0  0
  3  2  1  0  0  0  0
  4  5  1  0  0  0  0
  4  7  1  0  0  0  0
  5 17  1  0  0  0  0
  6  5  2  0  0  0  0
  7  8  1  0  0  0  0
  7 14  1  0  0  0  0
  8  1  1  0  0  0  0
  8 15  1  0  0  0  0
 10  2  1  0  0  0  0
 11  3  1  0  0  0  0
 12  3  1  0  0  0  0
 13  7  1  0  0  0  0
 16  8  1  0  0  0  0
 17 24  1  0  0  0  0
 18 17  2  0  0  0  0
 18 19  1  0  0  0  0
 19 23  2  0  0  0  0
 20 19  1  0  0  0  0
 20 21  2  0  0  0  0
 21 22  1  0  0  0  0
 23 24  1  0  0  0  0
 23 22  1  0  0  0  0
 25 18  1  0  0  0  0
 26 29  1  0  0  0  0
 26 20  1  0  0  0  0
 27 26  1  0  0  0  0
 28 26  1  0  0  0  0
 30 31  2  0  0  0  0
 30 37  1  0  0  0  0
 32 30  2  0  0  0  0
 33 42  1  0  0  0  0
 33 34  1  0  0  0  0
 34 39  1  0  0  0  0
 35 34  2  0  0  0  0
 35 40  1  0  0  0  0
 36 35  1  0  0  0  0
 37 38  1  0  0  0  0
 37 36  2  0  0  0  0
 38 33  2  0  0  0  0
 41 38  1  0  0  0  0
 42 44  1  0  0  0  0
 42 43  1  0  0  0  0
 45 42  1  0  0  0  0
 46 47  1  0  0  0  0
 46 36  1  0  0  0  0
 46 48  1  0  0  0  0
 49 46  1  0  0  0  0
M  END
>  <MODEL>
29

>  <REMARK>
 VINA RESULT:    -5.024      3.583      9.842
 INTER + INTRA:          -4.208
 INTER:                  -5.140
 INTRA:                   0.932
 UNBOUND:                 2.138
  Name = 
  6 active torsions:
  status: ('A' for Active; 'I' for Inactive)
    1  A    between atoms: C_1  and  C_2
    2  A    between atoms: C_5  and  C_6
    3  A    between atoms: C_7  and  S_8
    4  A    between atoms: S_8  and  N_11
    5  A    between atoms: C_15  and  C_17
    6  A    between atoms: C_20  and  C_21
                            x       y       z     vdW  Elec       q    Type
                         _______ _______ _______ _____ _____    ______ ____

>  <TORSDO>
F 6

$$$$
=
 OpenBabel07192307433D

 49 52  0  0  0  0  0  0  0  0999 V2000
    5.1500    3.4620   17.8560 N   0  0  0  0  0  0  0  0  0  0  0  0
    5.7730    4.3840   16.8340 C   0  0  0  0  0  0  0  0  0  0  0  0
    6.1120    5.7630   17.4190 C   0  0  0  0  0  0  0  0  0  0  0  0
    4.9710    6.2960   18.1600 N   0  0  0  0  0  0  0  0  0  0  0  0
    4.0960    7.1490   17.4720 C   0  0  0  0  0  0  0  0  0  0  0  0
    4.2820    7.4020   16.2800 O   0  0  0  0  0  0  0  0  0  0  0  0
    4.5140    5.4450   19.2720 C   0  0  0  0  0  0  0  0  0  0  0  0
    5.1460    4.0400   19.2400 C   0  0  0  0  0  0  0  0  0  0  0  0
    5.1000    4.5270   15.9830 H   0  0  0  0  0  0  0  0  0  0  0  0
    6.6810    3.9060   16.4530 H   0  0  0  0  0  0  0  0  0  0  0  0
    6.4210    6.4460   16.6220 H   0  0  0  0  0  0  0  0  0  0  0  0
    6.9550    5.6920   18.1160 H   0  0  0  0  0  0  0  0  0  0  0  0
    4.7930    5.9390   20.2080 H   0  0  0  0  0  0  0  0  0  0  0  0
    3.4240    5.3520   19.2430 H   0  0  0  0  0  0  0  0  0  0  0  0
    4.6390    3.3740   19.9460 H   0  0  0  0  0  0  0  0  0  0  0  0
    6.1890    4.0850   19.5800 H   0  0  0  0  0  0  0  0  0  0  0  0
    2.9630    7.7190   18.1850 C   0  0  0  0  0  0  0  0  0  0  0  0
    2.1140    8.7320   17.7280 C   0  0  0  0  0  0  0  0  0  0  0  0
    1.2120    9.0420   18.7360 C   0  0  0  0  0  0  0  0  0  0  0  0
    0.1500    9.9150   18.9110 C   0  0  0  0  0  0  0  0  0  0  0  0
   -0.3490    9.7590   20.1590 N   0  0  0  0  0  0  0  0  0  0  0  0
    0.4380    8.7560   20.7690 O   0  0  0  0  0  0  0  0  0  0  0  0
    1.3620    8.3590   19.8740 C   0  0  0  0  0  0  0  0  0  0  0  0
    2.6190    7.2730   19.8440 S   0  0  0  0  0  0  0  0  0  0  0  0
    2.1810    9.1710   16.7410 H   0  0  0  0  0  0  0  0  0  0  0  0
   -0.4370   10.9090   17.9870 C   0  0  0  0  0  0  0  0  0  0  0  0
   -1.2560   11.4450   18.4770 H   0  0  0  0  0  0  0  0  0  0  0  0
   -0.8300   10.4210   17.0890 H   0  0  0  0  0  0  0  0  0  0  0  0
    0.3070   11.6460   17.6680 H   0  0  0  0  0  0  0  0  0  0  0  0
    3.6470    2.7760   17.4020 S   0  0  0  0  0  0  0  0  0  0  0  0
    3.8560    1.3480   17.2720 O   0  0  0  0  0  0  0  0  0  0  0  0
    3.1200    3.5390   16.2900 O   0  0  0  0  0  0  0  0  0  0  0  0
    2.1320    2.5560   21.1550 C   0  0  0  0  0  0  0  0  0  0  0  0
    1.0700    3.4620   21.1170 C   0  0  0  0  0  0  0  0  0  0  0  0
    0.7870    4.1790   19.9500 C   0  0  0  0  0  0  0  0  0  0  0  0
    1.5560    4.0100   18.7880 C   0  0  0  0  0  0  0  0  0  0  0  0
    2.6180    3.0860   18.8280 C   0  0  0  0  0  0  0  0  0  0  0  0
    2.8940    2.3590   19.9990 C   0  0  0  0  0  0  0  0  0  0  0  0
    0.4480    3.6140   21.9970 H   0  0  0  0  0  0  0  0  0  0  0  0
   -0.0530    4.8710   19.9560 H   0  0  0  0  0  0  0  0  0  0  0  0
    3.7100    1.6360   20.0150 H   0  0  0  0  0  0  0  0  0  0  0  0
    2.4080    1.7630   22.3990 C   0  0  0  0  0  0  0  0  0  0  0  0
    3.4790    1.5570   22.4960 H   0  0  0  0  0  0  0  0  0  0  0  0
    2.0690    2.3180   23.2800 H   0  0  0  0  0  0  0  0  0  0  0  0
    1.8940    0.7960   22.3720 H   0  0  0  0  0  0  0  0  0  0  0  0
    1.1780    4.7900   17.5580 C   0  0  0  0  0  0  0  0  0  0  0  0
    0.5860    4.1700   16.8800 H   0  0  0  0  0  0  0  0  0  0  0  0
    0.5710    5.6660   17.8170 H   0  0  0  0  0  0  0  0  0  0  0  0
    2.0630    5.1710   17.0410 H   0  0  0  0  0  0  0  0  0  0  0  0
  1  8  1  0  0  0  0
  2  3  1  0  0  0  0
  2  1  1  0  0  0  0
  3 12  1  0  0  0  0
  3  4  1  0  0  0  0
  4  7  1  0  0  0  0
  5  4  1  0  0  0  0
  5 17  1  0  0  0  0
  6  5  2  0  0  0  0
  7 13  1  0  0  0  0
  8  7  1  0  0  0  0
  8 16  1  0  0  0  0
  8 15  1  0  0  0  0
  9  2  1  0  0  0  0
 10  2  1  0  0  0  0
 11  3  1  0  0  0  0
 14  7  1  0  0  0  0
 17 24  1  0  0  0  0
 18 17  2  0  0  0  0
 18 19  1  0  0  0  0
 19 20  1  0  0  0  0
 19 23  2  0  0  0  0
 20 21  2  0  0  0  0
 21 22  1  0  0  0  0
 23 22  1  0  0  0  0
 24 23  1  0  0  0  0
 25 18  1  0  0  0  0
 26 27  1  0  0  0  0
 26 20  1  0  0  0  0
 28 26  1  0  0  0  0
 29 26  1  0  0  0  0
 30  1  1  0  0  0  0
 30 37  1  0  0  0  0
 31 30  2  0  0  0  0
 32 30  2  0  0  0  0
 33 42  1  0  0  0  0
 34 33  1  0  0  0  0
 34 39  1  0  0  0  0
 35 40  1  0  0  0  0
 35 34  2  0  0  0  0
 36 37  2  0  0  0  0
 36 35  1  0  0  0  0
 37 38  1  0  0  0  0
 38 41  1  0  0  0  0
 38 33  2  0  0  0  0
 42 43  1  0  0  0  0
 42 44  1  0  0  0  0
 45 42  1  0  0  0  0
 46 48  1  0  0  0  0
 46 36  1  0  0  0  0
 47 46  1  0  0  0  0
 49 46  1  0  0  0  0
M  END
>  <MODEL>
30

>  <REMARK>
 VINA RESULT:    -4.974      2.431      5.025
 INTER + INTRA:          -4.145
 INTER:                  -6.283
 INTRA:                   2.138
 UNBOUND:                 2.138
  Name = 
  6 active torsions:
  status: ('A' for Active; 'I' for Inactive)
    1  A    between atoms: C_1  and  C_2
    2  A    between atoms: C_5  and  C_6
    3  A    between atoms: C_7  and  S_8
    4  A    between atoms: S_8  and  N_11
    5  A    between atoms: C_15  and  C_17
    6  A    between atoms: C_20  and  C_21
                            x       y       z     vdW  Elec       q    Type
                         _______ _______ _______ _____ _____    ______ ____

>  <TORSDO>
F 6

$$$$
=
 OpenBabel07192307433D

 49 52  0  0  0  0  0  0  0  0999 V2000
    0.3760   11.0480   19.0810 N   0  0  0  0  0  0  0  0  0  0  0  0
    1.7370   11.1820   18.4380 C   0  0  0  0  0  0  0  0  0  0  0  0
    1.9790   10.1210   17.3540 C   0  0  0  0  0  0  0  0  0  0  0  0
    1.6290    8.7940   17.8540 N   0  0  0  0  0  0  0  0  0  0  0  0
    2.6600    8.0180   18.4050 C   0  0  0  0  0  0  0  0  0  0  0  0
    3.8040    8.4680   18.4820 O   0  0  0  0  0  0  0  0  0  0  0  0
    0.2320    8.6580   18.3000 C   0  0  0  0  0  0  0  0  0  0  0  0
   -0.4860   10.0170   18.4170 C   0  0  0  0  0  0  0  0  0  0  0  0
    2.5280   11.0950   19.1890 H   0  0  0  0  0  0  0  0  0  0  0  0
    1.8100   12.1840   18.0030 H   0  0  0  0  0  0  0  0  0  0  0  0
    3.0200   10.1560   17.0180 H   0  0  0  0  0  0  0  0  0  0  0  0
    1.3580   10.3170   16.4730 H   0  0  0  0  0  0  0  0  0  0  0  0
   -0.2950    8.0400   17.5660 H   0  0  0  0  0  0  0  0  0  0  0  0
    0.1990    8.1480   19.2670 H   0  0  0  0  0  0  0  0  0  0  0  0
   -1.4420    9.9030   18.9390 H   0  0  0  0  0  0  0  0  0  0  0  0
   -0.7440   10.3980   17.4190 H   0  0  0  0  0  0  0  0  0  0  0  0
    2.3530    6.6810   18.8890 C   0  0  0  0  0  0  0  0  0  0  0  0
    2.4740    5.4860   18.1730 C   0  0  0  0  0  0  0  0  0  0  0  0
    2.0070    4.4450   18.9640 C   0  0  0  0  0  0  0  0  0  0  0  0
    1.8670    3.0710   18.8500 C   0  0  0  0  0  0  0  0  0  0  0  0
    1.3190    2.5880   19.9890 N   0  0  0  0  0  0  0  0  0  0  0  0
    1.1150    3.7070   20.8270 O   0  0  0  0  0  0  0  0  0  0  0  0
    1.5430    4.7990   20.1650 C   0  0  0  0  0  0  0  0  0  0  0  0
    1.6160    6.4320   20.4600 S   0  0  0  0  0  0  0  0  0  0  0  0
    2.8750    5.4260   17.1680 H   0  0  0  0  0  0  0  0  0  0  0  0
    2.2030    2.1620   17.7350 C   0  0  0  0  0  0  0  0  0  0  0  0
    1.5440    2.3480   16.8810 H   0  0  0  0  0  0  0  0  0  0  0  0
    2.0900    1.1160   18.0370 H   0  0  0  0  0  0  0  0  0  0  0  0
    3.2370    2.3030   17.4020 H   0  0  0  0  0  0  0  0  0  0  0  0
    0.3850   10.9260   20.7900 S   0  0  0  0  0  0  0  0  0  0  0  0
    1.5580   10.1550   21.1540 O   0  0  0  0  0  0  0  0  0  0  0  0
   -0.9300   10.4970   21.2190 O   0  0  0  0  0  0  0  0  0  0  0  0
    2.0490   14.5870   21.2930 C   0  0  0  0  0  0  0  0  0  0  0  0
    1.1080   15.2540   22.0800 C   0  0  0  0  0  0  0  0  0  0  0  0
   -0.0710   14.6130   22.4750 C   0  0  0  0  0  0  0  0  0  0  0  0
   -0.3420   13.2890   22.0950 C   0  0  0  0  0  0  0  0  0  0  0  0
    0.6170   12.6170   21.3120 C   0  0  0  0  0  0  0  0  0  0  0  0
    1.8060   13.2600   20.9250 C   0  0  0  0  0  0  0  0  0  0  0  0
    1.2880   16.2780   22.3990 H   0  0  0  0  0  0  0  0  0  0  0  0
   -0.7780   15.1620   23.0940 H   0  0  0  0  0  0  0  0  0  0  0  0
    2.5480   12.7270   20.3300 H   0  0  0  0  0  0  0  0  0  0  0  0
    3.3290   15.2670   20.9030 C   0  0  0  0  0  0  0  0  0  0  0  0
    4.0810   14.5310   20.6010 H   0  0  0  0  0  0  0  0  0  0  0  0
    3.1490   15.9570   20.0720 H   0  0  0  0  0  0  0  0  0  0  0  0
    3.7480   15.8310   21.7440 H   0  0  0  0  0  0  0  0  0  0  0  0
   -1.6150   12.6500   22.5800 C   0  0  0  0  0  0  0  0  0  0  0  0
   -2.0460   12.0170   21.8000 H   0  0  0  0  0  0  0  0  0  0  0  0
   -1.4300   12.0160   23.4540 H   0  0  0  0  0  0  0  0  0  0  0  0
   -2.3430   13.4030   22.8940 H   0  0  0  0  0  0  0  0  0  0  0  0
  1 30  1  0  0  0  0
  2  1  1  0  0  0  0
  2  9  1  0  0  0  0
  3  4  1  0  0  0  0
  3  2  1  0  0  0  0
  4  7  1  0  0  0  0
  4  5  1  0  0  0  0
  5  6  2  0  0  0  0
  5 17  1  0  0  0  0
  7  8  1  0  0  0  0
  7 14  1  0  0  0  0
  8 15  1  0  0  0  0
  8  1  1  0  0  0  0
 10  2  1  0  0  0  0
 11  3  1  0  0  0  0
 12  3  1  0  0  0  0
 13  7  1  0  0  0  0
 16  8  1  0  0  0  0
 17 24  1  0  0  0  0
 18 17  2  0  0  0  0
 18 19  1  0  0  0  0
 19 23  2  0  0  0  0
 20 19  1  0  0  0  0
 20 21  2  0  0  0  0
 21 22  1  0  0  0  0
 23 24  1  0  0  0  0
 23 22  1  0  0  0  0
 25 18  1  0  0  0  0
 26 28  1  0  0  0  0
 26 20  1  0  0  0  0
 27 26  1  0  0  0  0
 29 26  1  0  0  0  0
 30 31  2  0  0  0  0
 30 32  2  0  0  0  0
 30 37  1  0  0  0  0
 33 34  1  0  0  0  0
 34 39  1  0  0  0  0
 34 35  2  0  0  0  0
 35 40  1  0  0  0  0
 36 35  1  0  0  0  0
 36 46  1  0  0  0  0
 37 36  2  0  0  0  0
 38 33  2  0  0  0  0
 38 37  1  0  0  0  0
 41 38  1  0  0  0  0
 42 33  1  0  0  0  0
 42 45  1  0  0  0  0
 43 42  1  0  0  0  0
 44 42  1  0  0  0  0
 46 49  1  0  0  0  0
 46 48  1  0  0  0  0
 47 46  1  0  0  0  0
M  END
>  <MODEL>
31

>  <REMARK>
 VINA RESULT:    -4.851      3.608      8.843
 INTER + INTRA:          -3.990
 INTER:                  -4.388
 INTRA:                   0.398
 UNBOUND:                 2.138
  Name = 
  6 active torsions:
  status: ('A' for Active; 'I' for Inactive)
    1  A    between atoms: C_1  and  C_2
    2  A    between atoms: C_5  and  C_6
    3  A    between atoms: C_7  and  S_8
    4  A    between atoms: S_8  and  N_11
    5  A    between atoms: C_15  and  C_17
    6  A    between atoms: C_20  and  C_21
                            x       y       z     vdW  Elec       q    Type
                         _______ _______ _______ _____ _____    ______ ____

>  <TORSDO>
F 6

$$$$
=
 OpenBabel07192307433D

 49 52  0  0  0  0  0  0  0  0999 V2000
    0.1970    8.7760   19.3420 N   0  0  0  0  0  0  0  0  0  0  0  0
   -0.9440    9.6720   19.7670 C   0  0  0  0  0  0  0  0  0  0  0  0
   -0.9640   11.0000   18.9950 C   0  0  0  0  0  0  0  0  0  0  0  0
    0.3660   11.6050   18.9890 N   0  0  0  0  0  0  0  0  0  0  0  0
    0.6510   12.5490   19.9870 C   0  0  0  0  0  0  0  0  0  0  0  0
   -0.1910   12.8200   20.8450 O   0  0  0  0  0  0  0  0  0  0  0  0
    1.4170   10.7640   18.3920 C   0  0  0  0  0  0  0  0  0  0  0  0
    0.9530    9.3120   18.1640 C   0  0  0  0  0  0  0  0  0  0  0  0
   -0.8800    9.8960   20.8370 H   0  0  0  0  0  0  0  0  0  0  0  0
   -1.8810    9.1300   19.6040 H   0  0  0  0  0  0  0  0  0  0  0  0
   -1.7060   11.6770   19.4290 H   0  0  0  0  0  0  0  0  0  0  0  0
   -1.2590   10.8380   17.9520 H   0  0  0  0  0  0  0  0  0  0  0  0
    1.6910   11.2050   17.4290 H   0  0  0  0  0  0  0  0  0  0  0  0
    2.3010   10.7640   19.0360 H   0  0  0  0  0  0  0  0  0  0  0  0
    1.8060    8.6700   17.9160 H   0  0  0  0  0  0  0  0  0  0  0  0
    0.2860    9.2580   17.2930 H   0  0  0  0  0  0  0  0  0  0  0  0
    1.9550   13.1910   19.9960 C   0  0  0  0  0  0  0  0  0  0  0  0
    2.7520   13.4460   21.1180 C   0  0  0  0  0  0  0  0  0  0  0  0
    3.8810   14.1430   20.7100 C   0  0  0  0  0  0  0  0  0  0  0  0
    5.0170   14.6660   21.3050 C   0  0  0  0  0  0  0  0  0  0  0  0
    5.7750   15.2670   20.3590 N   0  0  0  0  0  0  0  0  0  0  0  0
    5.0750   15.1060   19.1420 O   0  0  0  0  0  0  0  0  0  0  0  0
    3.9440   14.4250   19.4060 C   0  0  0  0  0  0  0  0  0  0  0  0
    2.6350   13.8840   18.5370 S   0  0  0  0  0  0  0  0  0  0  0  0
    2.4940   13.1310   22.1210 H   0  0  0  0  0  0  0  0  0  0  0  0
    5.4510   14.6560   22.7190 C   0  0  0  0  0  0  0  0  0  0  0  0
    5.9570   15.5950   22.9670 H   0  0  0  0  0  0  0  0  0  0  0  0
    6.1430   13.8290   22.9080 H   0  0  0  0  0  0  0  0  0  0  0  0
    4.5990   14.5400   23.3970 H   0  0  0  0  0  0  0  0  0  0  0  0
    1.2120    8.2340   20.6110 S   0  0  0  0  0  0  0  0  0  0  0  0
    0.3760    8.0820   21.7860 O   0  0  0  0  0  0  0  0  0  0  0  0
    2.3790    9.0890   20.6540 O   0  0  0  0  0  0  0  0  0  0  0  0
    1.6430    4.2090   20.4020 C   0  0  0  0  0  0  0  0  0  0  0  0
    2.4740    4.0410   19.2920 C   0  0  0  0  0  0  0  0  0  0  0  0
    2.9210    5.1470   18.5630 C   0  0  0  0  0  0  0  0  0  0  0  0
    2.5510    6.4530   18.9230 C   0  0  0  0  0  0  0  0  0  0  0  0
    1.7250    6.6180   20.0520 C   0  0  0  0  0  0  0  0  0  0  0  0
    1.2850    5.5040   20.7880 C   0  0  0  0  0  0  0  0  0  0  0  0
    2.7860    3.0440   18.9870 H   0  0  0  0  0  0  0  0  0  0  0  0
    3.5730    4.9780   17.7080 H   0  0  0  0  0  0  0  0  0  0  0  0
    0.6560    5.6430   21.6680 H   0  0  0  0  0  0  0  0  0  0  0  0
    1.1970    3.0200   21.2020 C   0  0  0  0  0  0  0  0  0  0  0  0
    0.2060    3.1950   21.6330 H   0  0  0  0  0  0  0  0  0  0  0  0
    1.1580    2.1320   20.5630 H   0  0  0  0  0  0  0  0  0  0  0  0
    1.8820    2.8250   22.0340 H   0  0  0  0  0  0  0  0  0  0  0  0
    3.0930    7.6010   18.1140 C   0  0  0  0  0  0  0  0  0  0  0  0
    2.3210    7.9970   17.4500 H   0  0  0  0  0  0  0  0  0  0  0  0
    3.4220    8.4210   18.7630 H   0  0  0  0  0  0  0  0  0  0  0  0
    3.9680    7.2990   17.5330 H   0  0  0  0  0  0  0  0  0  0  0  0
  1  2  1  0  0  0  0
  1 30  1  0  0  0  0
  2  9  1  0  0  0  0
  3 11  1  0  0  0  0
  3  2  1  0  0  0  0
  4  3  1  0  0  0  0
  4  5  1  0  0  0  0
  5 17  1  0  0  0  0
  5  6  2  0  0  0  0
  7  4  1  0  0  0  0
  7 14  1  0  0  0  0
  8  7  1  0  0  0  0
  8  1  1  0  0  0  0
 10  2  1  0  0  0  0
 12  3  1  0  0  0  0
 13  7  1  0  0  0  0
 15  8  1  0  0  0  0
 16  8  1  0  0  0  0
 17 18  2  0  0  0  0
 18 25  1  0  0  0  0
 19 18  1  0  0  0  0
 19 20  1  0  0  0  0
 20 26  1  0  0  0  0
 21 20  2  0  0  0  0
 22 23  1  0  0  0  0
 22 21  1  0  0  0  0
 23 19  2  0  0  0  0
 24 23  1  0  0  0  0
 24 17  1  0  0  0  0
 26 28  1  0  0  0  0
 26 27  1  0  0  0  0
 26 29  1  0  0  0  0
 30 32  2  0  0  0  0
 30 31  2  0  0  0  0
 33 38  1  0  0  0  0
 33 42  1  0  0  0  0
 34 33  2  0  0  0  0
 35 36  2  0  0  0  0
 35 34  1  0  0  0  0
 36 37  1  0  0  0  0
 37 30  1  0  0  0  0
 37 38  2  0  0  0  0
 38 41  1  0  0  0  0
 39 34  1  0  0  0  0
 40 35  1  0  0  0  0
 42 43  1  0  0  0  0
 42 45  1  0  0  0  0
 44 42  1  0  0  0  0
 46 48  1  0  0  0  0
 46 36  1  0  0  0  0
 47 46  1  0  0  0  0
 49 46  1  0  0  0  0
M  END
>  <MODEL>
32

>  <REMARK>
 VINA RESULT:    -4.779      4.009      6.802
 INTER + INTRA:          -3.898
 INTER:                  -5.210
 INTRA:                   1.311
 UNBOUND:                 2.138
  Name = 
  6 active torsions:
  status: ('A' for Active; 'I' for Inactive)
    1  A    between atoms: C_1  and  C_2
    2  A    between atoms: C_5  and  C_6
    3  A    between atoms: C_7  and  S_8
    4  A    between atoms: S_8  and  N_11
    5  A    between atoms: C_15  and  C_17
    6  A    between atoms: C_20  and  C_21
                            x       y       z     vdW  Elec       q    Type
                         _______ _______ _______ _____ _____    ______ ____

>  <TORSDO>
F 6

$$$$
=
 OpenBabel07192307433D

 49 52  0  0  0  0  0  0  0  0999 V2000
    1.2440   11.8200   19.7190 N   0  0  0  0  0  0  0  0  0  0  0  0
    0.6930   12.7270   18.6430 C   0  0  0  0  0  0  0  0  0  0  0  0
    0.7200   14.2060   19.0550 C   0  0  0  0  0  0  0  0  0  0  0  0
    0.1550   14.3720   20.3930 N   0  0  0  0  0  0  0  0  0  0  0  0
   -1.2070   14.6930   20.4830 C   0  0  0  0  0  0  0  0  0  0  0  0
   -1.8920   14.7970   19.4630 O   0  0  0  0  0  0  0  0  0  0  0  0
    0.8450   13.6090   21.4460 C   0  0  0  0  0  0  0  0  0  0  0  0
    1.8320   12.5720   20.8750 C   0  0  0  0  0  0  0  0  0  0  0  0
   -0.3390   12.4540   18.4010 H   0  0  0  0  0  0  0  0  0  0  0  0
    1.2890   12.5800   17.7370 H   0  0  0  0  0  0  0  0  0  0  0  0
    0.1820   14.8120   18.3200 H   0  0  0  0  0  0  0  0  0  0  0  0
    1.7480   14.5830   19.0820 H   0  0  0  0  0  0  0  0  0  0  0  0
    1.3970   14.3200   22.0680 H   0  0  0  0  0  0  0  0  0  0  0  0
    0.1100   13.0990   22.0760 H   0  0  0  0  0  0  0  0  0  0  0  0
    2.1710   11.8900   21.6610 H   0  0  0  0  0  0  0  0  0  0  0  0
    2.7410   13.0720   20.5130 H   0  0  0  0  0  0  0  0  0  0  0  0
   -1.7980   14.8920   21.7970 C   0  0  0  0  0  0  0  0  0  0  0  0
   -1.1140   14.9730   23.0150 C   0  0  0  0  0  0  0  0  0  0  0  0
   -2.0450   15.0860   24.0390 C   0  0  0  0  0  0  0  0  0  0  0  0
   -2.0210   15.2080   25.4190 C   0  0  0  0  0  0  0  0  0  0  0  0
   -3.2920   15.2660   25.8790 N   0  0  0  0  0  0  0  0  0  0  0  0
   -4.1220   15.1730   24.7380 O   0  0  0  0  0  0  0  0  0  0  0  0
   -3.3250   15.0660   23.6580 C   0  0  0  0  0  0  0  0  0  0  0  0
   -3.5360   14.9000   22.0190 S   0  0  0  0  0  0  0  0  0  0  0  0
   -0.0350   14.9520   23.1000 H   0  0  0  0  0  0  0  0  0  0  0  0
   -0.8810   15.2650   26.3580 C   0  0  0  0  0  0  0  0  0  0  0  0
   -0.3380   14.3150   26.3530 H   0  0  0  0  0  0  0  0  0  0  0  0
   -1.2260   15.4610   27.3790 H   0  0  0  0  0  0  0  0  0  0  0  0
   -0.1780   16.0590   26.0850 H   0  0  0  0  0  0  0  0  0  0  0  0
    0.2080   10.5410   20.1980 S   0  0  0  0  0  0  0  0  0  0  0  0
   -0.4410   10.9610   21.4250 O   0  0  0  0  0  0  0  0  0  0  0  0
    0.9660    9.3080   20.1610 O   0  0  0  0  0  0  0  0  0  0  0  0
   -3.2030   11.1840   18.1060 C   0  0  0  0  0  0  0  0  0  0  0  0
   -2.9830   10.4750   16.9230 C   0  0  0  0  0  0  0  0  0  0  0  0
   -1.7820    9.7870   16.7190 C   0  0  0  0  0  0  0  0  0  0  0  0
   -0.7690    9.7870   17.6900 C   0  0  0  0  0  0  0  0  0  0  0  0
   -1.0020   10.4930   18.8870 C   0  0  0  0  0  0  0  0  0  0  0  0
   -2.2130   11.1750   19.0940 C   0  0  0  0  0  0  0  0  0  0  0  0
   -3.7480   10.4470   16.1500 H   0  0  0  0  0  0  0  0  0  0  0  0
   -1.6480    9.2400   15.7870 H   0  0  0  0  0  0  0  0  0  0  0  0
   -2.3900   11.7060   20.0300 H   0  0  0  0  0  0  0  0  0  0  0  0
   -4.5070   11.8890   18.3350 C   0  0  0  0  0  0  0  0  0  0  0  0
   -5.2640   11.5450   17.6230 H   0  0  0  0  0  0  0  0  0  0  0  0
   -4.8620   11.7000   19.3540 H   0  0  0  0  0  0  0  0  0  0  0  0
   -4.4010   12.9710   18.1960 H   0  0  0  0  0  0  0  0  0  0  0  0
    0.4850    9.0010   17.4190 C   0  0  0  0  0  0  0  0  0  0  0  0
    0.8650    8.5570   18.3430 H   0  0  0  0  0  0  0  0  0  0  0  0
    0.2940    8.1830   16.7150 H   0  0  0  0  0  0  0  0  0  0  0  0
    1.2550    9.6270   16.9610 H   0  0  0  0  0  0  0  0  0  0  0  0
  1 30  1  0  0  0  0
  1  8  1  0  0  0  0
  2  3  1  0  0  0  0
  2  1  1  0  0  0  0
  3 12  1  0  0  0  0
  3  4  1  0  0  0  0
  4  5  1  0  0  0  0
  4  7  1  0  0  0  0
  5 17  1  0  0  0  0
  6  5  2  0  0  0  0
  7 13  1  0  0  0  0
  7 14  1  0  0  0  0
  8  7  1  0  0  0  0
  8 15  1  0  0  0  0
  9  2  1  0  0  0  0
 10  2  1  0  0  0  0
 11  3  1  0  0  0  0
 16  8  1  0  0  0  0
 17 24  1  0  0  0  0
 17 18  2  0  0  0  0
 18 25  1  0  0  0  0
 18 19  1  0  0  0  0
 19 20  1  0  0  0  0
 20 21  2  0  0  0  0
 20 26  1  0  0  0  0
 22 21  1  0  0  0  0
 23 19  2  0  0  0  0
 23 22  1  0  0  0  0
 24 23  1  0  0  0  0
 26 28  1  0  0  0  0
 27 26  1  0  0  0  0
 29 26  1  0  0  0  0
 30 31  2  0  0  0  0
 32 30  2  0  0  0  0
 33 42  1  0  0  0  0
 33 38  1  0  0  0  0
 34 33  2  0  0  0  0
 35 34  1  0  0  0  0
 35 36  2  0  0  0  0
 36 37  1  0  0  0  0
 37 38  2  0  0  0  0
 37 30  1  0  0  0  0
 38 41  1  0  0  0  0
 39 34  1  0  0  0  0
 40 35  1  0  0  0  0
 42 44  1  0  0  0  0
 43 42  1  0  0  0  0
 45 42  1  0  0  0  0
 46 36  1  0  0  0  0
 46 47  1  0  0  0  0
 48 46  1  0  0  0  0
 49 46  1  0  0  0  0
M  END
>  <MODEL>
33

>  <REMARK>
 VINA RESULT:    -4.778      6.186      9.501
 INTER + INTRA:          -3.897
 INTER:                  -4.754
 INTRA:                   0.857
 UNBOUND:                 2.138
  Name = 
  6 active torsions:
  status: ('A' for Active; 'I' for Inactive)
    1  A    between atoms: C_1  and  C_2
    2  A    between atoms: C_5  and  C_6
    3  A    between atoms: C_7  and  S_8
    4  A    between atoms: S_8  and  N_11
    5  A    between atoms: C_15  and  C_17
    6  A    between atoms: C_20  and  C_21
                            x       y       z     vdW  Elec       q    Type
                         _______ _______ _______ _____ _____    ______ ____

>  <TORSDO>
F 6

$$$$
