=
 OpenBabel07192307433D

 51 54  0  0  1  0  0  0  0  0999 V2000
   -0.1710   10.3100   20.4500 C   0  0  0  0  0  0  0  0  0  0  0  0
    0.6310    9.3570   19.7920 C   0  0  0  0  0  0  0  0  0  0  0  0
    1.3710    8.4060   20.5070 C   0  0  0  0  0  0  0  0  0  0  0  0
    1.3310    8.4240   21.8990 C   0  0  0  0  0  0  0  0  0  0  0  0
    0.5540    9.3740   22.5690 C   0  0  0  0  0  0  0  0  0  0  0  0
   -0.1920   10.3090   21.8510 C   0  0  0  0  0  0  0  0  0  0  0  0
    0.6510    9.3390   18.7050 H   0  0  0  0  0  0  0  0  0  0  0  0
    1.8960    7.7130   22.4940 H   0  0  0  0  0  0  0  0  0  0  0  0
    0.5340    9.3760   23.6560 H   0  0  0  0  0  0  0  0  0  0  0  0
   -0.7910   11.0350   22.3990 H   0  0  0  0  0  0  0  0  0  0  0  0
    2.1050    7.4750   19.7550 N   0  0  0  0  0  0  0  0  0  0  0  0
    2.1770    6.0990   19.9040 C   0  0  0  0  0  0  0  0  0  0  0  0
    1.6090    5.4440   20.7640 O   0  0  0  0  0  0  0  0  0  0  0  0
    2.6190    7.8230   18.9460 H   0  0  0  0  0  0  0  0  0  0  0  0
    3.0370    5.4610   18.8360 C   0  0  0  0  0  0  0  0  0  0  0  0
    4.2340    6.1210   18.6510 N   0  0  0  0  0  0  0  0  0  0  0  0
    5.0790    5.6660   17.7120 C   0  0  0  0  0  0  0  0  0  0  0  0
    6.2850    6.3190   17.5040 C   0  0  0  0  0  0  0  0  0  0  0  0
    7.1940    5.8890   16.5320 C   0  0  0  0  0  0  0  0  0  0  0  0
    6.8970    4.7810   15.7480 C   0  0  0  0  0  0  0  0  0  0  0  0
    5.6920    4.1040   15.9400 C   0  0  0  0  0  0  0  0  0  0  0  0
    4.7800    4.5400   16.9180 C   0  0  0  0  0  0  0  0  0  0  0  0
    3.5590    3.8850   17.1290 C   0  0  0  0  0  0  0  0  0  0  0  0
    2.6640    4.3420   18.0990 C   0  0  0  0  0  0  0  0  0  0  0  0
    1.1890    3.4690   18.2780 Cl  0  0  0  0  0  0  0  0  0  0  0  0
    6.5290    7.1890   18.1080 H   0  0  0  0  0  0  0  0  0  0  0  0
    8.1320    6.4240   16.3910 H   0  0  0  0  0  0  0  0  0  0  0  0
    7.6000    4.4440   14.9900 H   0  0  0  0  0  0  0  0  0  0  0  0
    5.4690    3.2400   15.3180 H   0  0  0  0  0  0  0  0  0  0  0  0
    3.2990    3.0120   16.5300 H   0  0  0  0  0  0  0  0  0  0  0  0
   -1.0310   11.3010   19.6720 C   0  0  1  0  0  0  0  0  0  0  0  0
   -2.0070   11.3680   20.1710 H   0  0  0  0  0  0  0  0  0  0  0  0
   -0.4070   12.7170   19.6470 C   0  0  0  0  0  0  0  0  0  0  0  0
    0.1020   12.9390   20.5930 H   0  0  0  0  0  0  0  0  0  0  0  0
   -1.2130   13.4590   19.5590 H   0  0  0  0  0  0  0  0  0  0  0  0
    0.5720   12.9250   18.5200 C   0  0  0  0  0  0  0  0  0  0  0  0
    1.9010   12.8350   18.6520 C   0  0  0  0  0  0  0  0  0  0  0  0
    0.1600   13.1550   17.5370 H   0  0  0  0  0  0  0  0  0  0  0  0
    2.5520   12.9960   17.7960 H   0  0  0  0  0  0  0  0  0  0  0  0
    2.3730   12.6090   19.6040 H   0  0  0  0  0  0  0  0  0  0  0  0
   -1.2870   10.6470   17.9610 S   0  0  0  0  0  0  0  0  0  0  0  0
   -3.5400   11.0750   16.4720 N   0  0  0  0  0  0  0  0  0  0  0  0
   -4.8080   11.5220   16.6950 C   0  0  0  0  0  0  0  0  0  0  0  0
   -4.9330   11.8950   17.9500 N   0  0  0  0  0  0  0  0  0  0  0  0
   -3.7320   11.6510   18.5770 N   0  0  0  0  0  0  0  0  0  0  0  0
   -2.9170   11.1330   17.6850 C   0  0  0  0  0  0  0  0  0  0  0  0
   -5.5830   11.5630   15.9400 H   0  0  0  0  0  0  0  0  0  0  0  0
   -3.0240   10.5910   15.2210 C   0  0  0  0  0  0  0  0  0  0  0  0
   -3.2680   11.3020   14.4250 H   0  0  0  0  0  0  0  0  0  0  0  0
   -3.4890    9.6260   15.0050 H   0  0  0  0  0  0  0  0  0  0  0  0
   -1.9370   10.4900   15.2860 H   0  0  0  0  0  0  0  0  0  0  0  0
  1  6  1  0  0  0  0
  2  1  2  0  0  0  0
  2  3  1  0  0  0  0
  3  4  2  0  0  0  0
  4  8  1  0  0  0  0
  4  5  1  0  0  0  0
  5  9  1  0  0  0  0
  6 10  1  0  0  0  0
  6  5  2  0  0  0  0
  7  2  1  0  0  0  0
 11 12  1  0  0  0  0
 11  3  1  0  0  0  0
 12 13  2  0  0  0  0
 14 11  1  0  0  0  0
 15 12  1  0  0  0  0
 16 15  1  0  0  0  0
 17 16  2  0  0  0  0
 18 17  1  0  0  0  0
 18 26  1  0  0  0  0
 19 18  2  0  0  0  0
 20 21  2  0  0  0  0
 20 19  1  0  0  0  0
 21 22  1  0  0  0  0
 22 23  2  0  0  0  0
 22 17  1  0  0  0  0
 23 24  1  0  0  0  0
 24 25  1  0  0  0  0
 24 15  2  0  0  0  0
 27 19  1  0  0  0  0
 28 20  1  0  0  0  0
 29 21  1  0  0  0  0
 30 23  1  0  0  0  0
 31 32  1  1  0  0  0
 31  1  1  0  0  0  0
 33 31  1  0  0  0  0
 33 34  1  0  0  0  0
 35 33  1  0  0  0  0
 36 37  2  0  0  0  0
 36 33  1  0  0  0  0
 37 40  1  0  0  0  0
 38 36  1  0  0  0  0
 39 37  1  0  0  0  0
 41 31  1  0  0  0  0
 42 43  1  0  0  0  0
 42 46  1  0  0  0  0
 43 44  2  0  0  0  0
 44 45  1  0  0  0  0
 46 41  1  0  0  0  0
 46 45  2  0  0  0  0
 47 43  1  0  0  0  0
 48 51  1  0  0  0  0
 48 42  1  0  0  0  0
 49 48  1  0  0  0  0
 50 48  1  0  0  0  0
M  END
>  <MODEL>
1

>  <REMARK>
 VINA RESULT:    -8.666      0.000      0.000
 INTER + INTRA:         -12.972
 INTER:                 -12.015
 INTRA:                  -0.956
 UNBOUND:                -0.506
  Name = 
  8 active torsions:
  status: ('A' for Active; 'I' for Inactive)
    1  A    between atoms: C_1  and  N_2
    2  A    between atoms: C_6  and  S_7
    3  A    between atoms: S_7  and  C_8
    4  A    between atoms: C_8  and  C_9
    5  A    between atoms: C_8  and  C_12
    6  A    between atoms: C_9  and  C_10
    7  A    between atoms: C_14  and  N_18
    8  A    between atoms: C_19  and  C_21
                            x       y       z     vdW  Elec       q    Type
                         _______ _______ _______ _____ _____    ______ ____

>  <TORSDO>
F 8

$$$$
=
 OpenBabel07192307433D

 51 54  0  0  1  0  0  0  0  0999 V2000
    2.5860    6.9550   19.3060 C   0  0  0  0  0  0  0  0  0  0  0  0
    1.7560    7.8100   20.0560 C   0  0  0  0  0  0  0  0  0  0  0  0
    1.2630    9.0070   19.5190 C   0  0  0  0  0  0  0  0  0  0  0  0
    1.6270    9.3670   18.2230 C   0  0  0  0  0  0  0  0  0  0  0  0
    2.4630    8.5380   17.4700 C   0  0  0  0  0  0  0  0  0  0  0  0
    2.9390    7.3400   18.0060 C   0  0  0  0  0  0  0  0  0  0  0  0
    1.4660    7.5210   21.0640 H   0  0  0  0  0  0  0  0  0  0  0  0
    1.2780   10.2900   17.7690 H   0  0  0  0  0  0  0  0  0  0  0  0
    2.7390    8.8340   16.4610 H   0  0  0  0  0  0  0  0  0  0  0  0
    3.5860    6.7120   17.3960 H   0  0  0  0  0  0  0  0  0  0  0  0
    0.4110    9.7680   20.3350 N   0  0  0  0  0  0  0  0  0  0  0  0
    0.5060   11.1050   20.6850 C   0  0  0  0  0  0  0  0  0  0  0  0
    1.3970   11.8690   20.3470 O   0  0  0  0  0  0  0  0  0  0  0  0
   -0.4340    9.3160   20.6830 H   0  0  0  0  0  0  0  0  0  0  0  0
   -0.6640   11.5490   21.5340 C   0  0  0  0  0  0  0  0  0  0  0  0
   -1.3560   12.6050   20.9760 N   0  0  0  0  0  0  0  0  0  0  0  0
   -2.4060   13.1070   21.6450 C   0  0  0  0  0  0  0  0  0  0  0  0
   -3.1110   14.1740   21.1060 C   0  0  0  0  0  0  0  0  0  0  0  0
   -4.2060   14.7390   21.7690 C   0  0  0  0  0  0  0  0  0  0  0  0
   -4.6100   14.2290   22.9970 C   0  0  0  0  0  0  0  0  0  0  0  0
   -3.9200   13.1550   23.5590 C   0  0  0  0  0  0  0  0  0  0  0  0
   -2.8190   12.5900   22.8900 C   0  0  0  0  0  0  0  0  0  0  0  0
   -2.1020   11.5150   23.4320 C   0  0  0  0  0  0  0  0  0  0  0  0
   -1.0050   10.9760   22.7540 C   0  0  0  0  0  0  0  0  0  0  0  0
   -0.1890    9.6580   23.5070 Cl  0  0  0  0  0  0  0  0  0  0  0  0
   -2.8040   14.5840   20.1480 H   0  0  0  0  0  0  0  0  0  0  0  0
   -4.7380   15.5770   21.3220 H   0  0  0  0  0  0  0  0  0  0  0  0
   -5.4590   14.6660   23.5160 H   0  0  0  0  0  0  0  0  0  0  0  0
   -4.2440   12.7670   24.5220 H   0  0  0  0  0  0  0  0  0  0  0  0
   -2.3960   11.0930   24.3940 H   0  0  0  0  0  0  0  0  0  0  0  0
    3.0660    5.6180   19.8650 C   0  0  1  0  0  0  0  0  0  0  0  0
    3.9820    5.8010   20.4410 H   0  0  0  0  0  0  0  0  0  0  0  0
    2.0230    4.9780   20.8120 C   0  0  0  0  0  0  0  0  0  0  0  0
    1.0550    5.4870   20.7330 H   0  0  0  0  0  0  0  0  0  0  0  0
    2.3520    5.1200   21.8510 H   0  0  0  0  0  0  0  0  0  0  0  0
    1.8080    3.5060   20.5660 C   0  0  0  0  0  0  0  0  0  0  0  0
    1.5800    2.6070   21.5320 C   0  0  0  0  0  0  0  0  0  0  0  0
    1.8330    3.1640   19.5310 H   0  0  0  0  0  0  0  0  0  0  0  0
    1.4310    1.5590   21.2860 H   0  0  0  0  0  0  0  0  0  0  0  0
    1.5430    2.8860   22.5820 H   0  0  0  0  0  0  0  0  0  0  0  0
    3.4710    4.4970   18.4520 S   0  0  0  0  0  0  0  0  0  0  0  0
    5.9230    4.4370   17.2450 N   0  0  0  0  0  0  0  0  0  0  0  0
    7.1980    4.7990   17.5650 C   0  0  0  0  0  0  0  0  0  0  0  0
    7.2370    5.2300   18.8060 N   0  0  0  0  0  0  0  0  0  0  0  0
    5.9530    5.1880   19.3010 N   0  0  0  0  0  0  0  0  0  0  0  0
    5.1740    4.7380   18.3440 C   0  0  0  0  0  0  0  0  0  0  0  0
    8.0400    4.7310   16.8880 H   0  0  0  0  0  0  0  0  0  0  0  0
    5.4890    3.9110   15.9790 C   0  0  0  0  0  0  0  0  0  0  0  0
    4.4150    3.7060   16.0160 H   0  0  0  0  0  0  0  0  0  0  0  0
    6.0330    2.9830   15.7840 H   0  0  0  0  0  0  0  0  0  0  0  0
    5.6830    4.6440   15.1910 H   0  0  0  0  0  0  0  0  0  0  0  0
  1 31  1  0  0  0  0
  1  2  1  0  0  0  0
  2  7  1  0  0  0  0
  3  2  2  0  0  0  0
  3 11  1  0  0  0  0
  4  3  1  0  0  0  0
  5  6  1  0  0  0  0
  5  4  2  0  0  0  0
  6  1  2  0  0  0  0
  8  4  1  0  0  0  0
  9  5  1  0  0  0  0
 10  6  1  0  0  0  0
 11 14  1  0  0  0  0
 11 12  1  0  0  0  0
 12 15  1  0  0  0  0
 13 12  2  0  0  0  0
 15 24  1  0  0  0  0
 16 15  2  0  0  0  0
 16 17  1  0  0  0  0
 17 22  1  0  0  0  0
 18 17  2  0  0  0  0
 18 19  1  0  0  0  0
 19 20  2  0  0  0  0
 20 28  1  0  0  0  0
 20 21  1  0  0  0  0
 21 29  1  0  0  0  0
 22 23  1  0  0  0  0
 22 21  2  0  0  0  0
 23 30  1  0  0  0  0
 24 23  2  0  0  0  0
 24 25  1  0  0  0  0
 26 18  1  0  0  0  0
 27 19  1  0  0  0  0
 31 32  1  1  0  0  0
 31 33  1  0  0  0  0
 33 35  1  0  0  0  0
 34 33  1  0  0  0  0
 36 33  1  0  0  0  0
 36 37  2  0  0  0  0
 37 40  1  0  0  0  0
 38 36  1  0  0  0  0
 39 37  1  0  0  0  0
 41 31  1  0  0  0  0
 42 43  1  0  0  0  0
 42 46  1  0  0  0  0
 43 44  2  0  0  0  0
 44 45  1  0  0  0  0
 46 41  1  0  0  0  0
 46 45  2  0  0  0  0
 47 43  1  0  0  0  0
 48 49  1  0  0  0  0
 48 42  1  0  0  0  0
 50 48  1  0  0  0  0
 51 48  1  0  0  0  0
M  END
>  <MODEL>
2

>  <REMARK>
 VINA RESULT:    -8.451      3.535      9.916
 INTER + INTRA:         -12.661
 INTER:                 -11.962
 INTRA:                  -0.699
 UNBOUND:                -0.506
  Name = 
  8 active torsions:
  status: ('A' for Active; 'I' for Inactive)
    1  A    between atoms: C_1  and  N_2
    2  A    between atoms: C_6  and  S_7
    3  A    between atoms: S_7  and  C_8
    4  A    between atoms: C_8  and  C_9
    5  A    between atoms: C_8  and  C_12
    6  A    between atoms: C_9  and  C_10
    7  A    between atoms: C_14  and  N_18
    8  A    between atoms: C_19  and  C_21
                            x       y       z     vdW  Elec       q    Type
                         _______ _______ _______ _____ _____    ______ ____

>  <TORSDO>
F 8

$$$$
=
 OpenBabel07192307433D

 51 54  0  0  1  0  0  0  0  0999 V2000
    0.0720   10.5620   19.8830 C   0  0  0  0  0  0  0  0  0  0  0  0
    0.8600    9.5510   19.2980 C   0  0  0  0  0  0  0  0  0  0  0  0
    1.4270    8.5270   20.0700 C   0  0  0  0  0  0  0  0  0  0  0  0
    1.2270    8.5290   21.4480 C   0  0  0  0  0  0  0  0  0  0  0  0
    0.4620    9.5340   22.0470 C   0  0  0  0  0  0  0  0  0  0  0  0
   -0.1120   10.5420   21.2720 C   0  0  0  0  0  0  0  0  0  0  0  0
    1.0050    9.5470   18.2200 H   0  0  0  0  0  0  0  0  0  0  0  0
    1.6550    7.7620   22.0870 H   0  0  0  0  0  0  0  0  0  0  0  0
    0.3150    9.5220   23.1250 H   0  0  0  0  0  0  0  0  0  0  0  0
   -0.7060   11.3100   21.7650 H   0  0  0  0  0  0  0  0  0  0  0  0
    2.1610    7.5460   19.3840 N   0  0  0  0  0  0  0  0  0  0  0  0
    2.3260    6.2060   19.6980 C   0  0  0  0  0  0  0  0  0  0  0  0
    1.8600    5.6390   20.6740 O   0  0  0  0  0  0  0  0  0  0  0  0
    2.5930    7.8130   18.5010 H   0  0  0  0  0  0  0  0  0  0  0  0
    3.1440    5.4810   18.6530 C   0  0  0  0  0  0  0  0  0  0  0  0
    4.3440    6.1080   18.3860 N   0  0  0  0  0  0  0  0  0  0  0  0
    5.1530    5.5740   17.4570 C   0  0  0  0  0  0  0  0  0  0  0  0
    6.3610    6.1920   17.1680 C   0  0  0  0  0  0  0  0  0  0  0  0
    7.2340    5.6800   16.2020 C   0  0  0  0  0  0  0  0  0  0  0  0
    6.8980    4.5230   15.5090 C   0  0  0  0  0  0  0  0  0  0  0  0
    5.6920    3.8800   15.7840 C   0  0  0  0  0  0  0  0  0  0  0  0
    4.8160    4.3990   16.7550 C   0  0  0  0  0  0  0  0  0  0  0  0
    3.5930    3.7790   17.0490 C   0  0  0  0  0  0  0  0  0  0  0  0
    2.7340    4.3170   18.0100 C   0  0  0  0  0  0  0  0  0  0  0  0
    1.2540    3.4820   18.2950 Cl  0  0  0  0  0  0  0  0  0  0  0  0
    6.6340    7.1000   17.7000 H   0  0  0  0  0  0  0  0  0  0  0  0
    8.1740    6.1900   15.9950 H   0  0  0  0  0  0  0  0  0  0  0  0
    7.5740    4.1230   14.7570 H   0  0  0  0  0  0  0  0  0  0  0  0
    5.4390    2.9770   15.2330 H   0  0  0  0  0  0  0  0  0  0  0  0
    3.3030    2.8690   16.5220 H   0  0  0  0  0  0  0  0  0  0  0  0
   -0.6030   11.6360   19.0360 C   0  0  1  0  0  0  0  0  0  0  0  0
   -0.1060   11.6590   18.0570 H   0  0  0  0  0  0  0  0  0  0  0  0
   -2.1030   11.3350   18.8060 C   0  0  0  0  0  0  0  0  0  0  0  0
   -2.6070   12.1860   18.3320 H   0  0  0  0  0  0  0  0  0  0  0  0
   -2.5920   11.2030   19.7820 H   0  0  0  0  0  0  0  0  0  0  0  0
   -2.3520   10.1080   17.9670 C   0  0  0  0  0  0  0  0  0  0  0  0
   -2.2660   10.0800   16.6310 C   0  0  0  0  0  0  0  0  0  0  0  0
   -2.6080    9.1880   18.4930 H   0  0  0  0  0  0  0  0  0  0  0  0
   -2.4560    9.1590   16.0870 H   0  0  0  0  0  0  0  0  0  0  0  0
   -2.0150   10.9630   16.0500 H   0  0  0  0  0  0  0  0  0  0  0  0
   -0.3620   13.2750   19.8570 S   0  0  0  0  0  0  0  0  0  0  0  0
    2.1720   14.2390   20.2100 N   0  0  0  0  0  0  0  0  0  0  0  0
    3.3280   14.2820   19.4890 C   0  0  0  0  0  0  0  0  0  0  0  0
    3.1240   13.7750   18.2930 N   0  0  0  0  0  0  0  0  0  0  0  0
    1.8150   13.3530   18.2390 N   0  0  0  0  0  0  0  0  0  0  0  0
    1.2660   13.6110   19.4050 C   0  0  0  0  0  0  0  0  0  0  0  0
    4.2630   14.6820   19.8590 H   0  0  0  0  0  0  0  0  0  0  0  0
    2.0010   14.7090   21.5570 C   0  0  0  0  0  0  0  0  0  0  0  0
    2.9710   14.7320   22.0630 H   0  0  0  0  0  0  0  0  0  0  0  0
    1.3300   14.0230   22.0810 H   0  0  0  0  0  0  0  0  0  0  0  0
    1.5840   15.7200   21.5440 H   0  0  0  0  0  0  0  0  0  0  0  0
  1  6  1  0  0  0  0
  2  1  2  0  0  0  0
  2  3  1  0  0  0  0
  3  4  2  0  0  0  0
  4  5  1  0  0  0  0
  4  8  1  0  0  0  0
  5  9  1  0  0  0  0
  6 10  1  0  0  0  0
  6  5  2  0  0  0  0
  7  2  1  0  0  0  0
 11 12  1  0  0  0  0
 11  3  1  0  0  0  0
 12 13  2  0  0  0  0
 14 11  1  0  0  0  0
 15 12  1  0  0  0  0
 16 15  1  0  0  0  0
 17 16  2  0  0  0  0
 18 17  1  0  0  0  0
 18 26  1  0  0  0  0
 19 18  2  0  0  0  0
 20 21  2  0  0  0  0
 20 19  1  0  0  0  0
 21 22  1  0  0  0  0
 22 23  2  0  0  0  0
 22 17  1  0  0  0  0
 23 24  1  0  0  0  0
 24 25  1  0  0  0  0
 24 15  2  0  0  0  0
 27 19  1  0  0  0  0
 28 20  1  0  0  0  0
 29 21  1  0  0  0  0
 30 23  1  0  0  0  0
 31 32  1  6  0  0  0
 31 41  1  0  0  0  0
 31  1  1  0  0  0  0
 33 31  1  0  0  0  0
 33 35  1  0  0  0  0
 34 33  1  0  0  0  0
 36 38  1  0  0  0  0
 36 33  1  0  0  0  0
 37 36  2  0  0  0  0
 39 37  1  0  0  0  0
 40 37  1  0  0  0  0
 42 48  1  0  0  0  0
 43 47  1  0  0  0  0
 43 42  1  0  0  0  0
 44 43  2  0  0  0  0
 45 44  1  0  0  0  0
 45 46  2  0  0  0  0
 46 41  1  0  0  0  0
 46 42  1  0  0  0  0
 48 49  1  0  0  0  0
 48 50  1  0  0  0  0
 51 48  1  0  0  0  0
M  END
>  <MODEL>
3

>  <REMARK>
 VINA RESULT:    -8.343      2.274      3.663
 INTER + INTRA:         -12.507
 INTER:                 -11.677
 INTRA:                  -0.830
 UNBOUND:                -0.506
  Name = 
  8 active torsions:
  status: ('A' for Active; 'I' for Inactive)
    1  A    between atoms: C_1  and  N_2
    2  A    between atoms: C_6  and  S_7
    3  A    between atoms: S_7  and  C_8
    4  A    between atoms: C_8  and  C_9
    5  A    between atoms: C_8  and  C_12
    6  A    between atoms: C_9  and  C_10
    7  A    between atoms: C_14  and  N_18
    8  A    between atoms: C_19  and  C_21
                            x       y       z     vdW  Elec       q    Type
                         _______ _______ _______ _____ _____    ______ ____

>  <TORSDO>
F 8

$$$$
=
 OpenBabel07192307433D

 51 54  0  0  1  0  0  0  0  0999 V2000
    2.5270    6.9820   19.4230 C   0  0  0  0  0  0  0  0  0  0  0  0
    1.7020    7.8680   20.1420 C   0  0  0  0  0  0  0  0  0  0  0  0
    1.2280    9.0560   19.5670 C   0  0  0  0  0  0  0  0  0  0  0  0
    1.6060    9.3750   18.2650 C   0  0  0  0  0  0  0  0  0  0  0  0
    2.4380    8.5150   17.5430 C   0  0  0  0  0  0  0  0  0  0  0  0
    2.8950    7.3270   18.1160 C   0  0  0  0  0  0  0  0  0  0  0  0
    1.4000    7.6110   21.1550 H   0  0  0  0  0  0  0  0  0  0  0  0
    1.2720   10.2890   17.7830 H   0  0  0  0  0  0  0  0  0  0  0  0
    2.7260    8.7790   16.5280 H   0  0  0  0  0  0  0  0  0  0  0  0
    3.5390    6.6750   17.5280 H   0  0  0  0  0  0  0  0  0  0  0  0
    0.3780    9.8490   20.3550 N   0  0  0  0  0  0  0  0  0  0  0  0
    0.4790   11.1980   20.6550 C   0  0  0  0  0  0  0  0  0  0  0  0
    1.3710   11.9460   20.2880 O   0  0  0  0  0  0  0  0  0  0  0  0
   -0.4670    9.4130   20.7210 H   0  0  0  0  0  0  0  0  0  0  0  0
   -0.6900   11.6780   21.4870 C   0  0  0  0  0  0  0  0  0  0  0  0
   -1.3200   12.7760   20.9370 N   0  0  0  0  0  0  0  0  0  0  0  0
   -2.3610   13.3120   21.5940 C   0  0  0  0  0  0  0  0  0  0  0  0
   -3.0040   14.4210   21.0640 C   0  0  0  0  0  0  0  0  0  0  0  0
   -4.0870   15.0220   21.7140 C   0  0  0  0  0  0  0  0  0  0  0  0
   -4.5420   14.5050   22.9210 C   0  0  0  0  0  0  0  0  0  0  0  0
   -3.9150   13.3890   23.4740 C   0  0  0  0  0  0  0  0  0  0  0  0
   -2.8260   12.7880   22.8180 C   0  0  0  0  0  0  0  0  0  0  0  0
   -2.1710   11.6690   23.3510 C   0  0  0  0  0  0  0  0  0  0  0  0
   -1.0850   11.0950   22.6860 C   0  0  0  0  0  0  0  0  0  0  0  0
   -0.3470    9.7250   23.4270 Cl  0  0  0  0  0  0  0  0  0  0  0  0
   -2.6560   14.8370   20.1220 H   0  0  0  0  0  0  0  0  0  0  0  0
   -4.5700   15.8930   21.2750 H   0  0  0  0  0  0  0  0  0  0  0  0
   -5.3830   14.9700   23.4310 H   0  0  0  0  0  0  0  0  0  0  0  0
   -4.2790   12.9950   24.4210 H   0  0  0  0  0  0  0  0  0  0  0  0
   -2.5070   11.2410   24.2960 H   0  0  0  0  0  0  0  0  0  0  0  0
    2.9860    5.6560   20.0230 C   0  0  1  0  0  0  0  0  0  0  0  0
    3.3140    5.8450   21.0530 H   0  0  0  0  0  0  0  0  0  0  0  0
    1.8430    4.6130   20.0660 C   0  0  0  0  0  0  0  0  0  0  0  0
    1.9760    3.8520   19.2870 H   0  0  0  0  0  0  0  0  0  0  0  0
    0.8940    5.1160   19.8340 H   0  0  0  0  0  0  0  0  0  0  0  0
    1.7130    3.9150   21.3960 C   0  0  0  0  0  0  0  0  0  0  0  0
    1.4000    2.6210   21.5390 C   0  0  0  0  0  0  0  0  0  0  0  0
    1.8970    4.5090   22.2910 H   0  0  0  0  0  0  0  0  0  0  0  0
    1.3240    2.1800   22.5290 H   0  0  0  0  0  0  0  0  0  0  0  0
    1.2050    1.9770   20.6860 H   0  0  0  0  0  0  0  0  0  0  0  0
    4.4300    5.0350   19.0500 S   0  0  0  0  0  0  0  0  0  0  0  0
    4.0360    2.3300   19.1050 N   0  0  0  0  0  0  0  0  0  0  0  0
    3.3480    1.4110   18.3700 C   0  0  0  0  0  0  0  0  0  0  0  0
    2.7870    1.9990   17.3370 N   0  0  0  0  0  0  0  0  0  0  0  0
    3.0790    3.3420   17.4150 N   0  0  0  0  0  0  0  0  0  0  0  0
    3.8040    3.5290   18.4950 C   0  0  0  0  0  0  0  0  0  0  0  0
    3.2870    0.3570   18.6120 H   0  0  0  0  0  0  0  0  0  0  0  0
    4.7850    2.0620   20.3020 C   0  0  0  0  0  0  0  0  0  0  0  0
    4.5140    1.0760   20.6910 H   0  0  0  0  0  0  0  0  0  0  0  0
    4.5400    2.8280   21.0420 H   0  0  0  0  0  0  0  0  0  0  0  0
    5.8550    2.0720   20.0770 H   0  0  0  0  0  0  0  0  0  0  0  0
  1 31  1  0  0  0  0
  1  2  1  0  0  0  0
  2  7  1  0  0  0  0
  3  2  2  0  0  0  0
  3 11  1  0  0  0  0
  4  3  1  0  0  0  0
  5  6  1  0  0  0  0
  5  4  2  0  0  0  0
  6  1  2  0  0  0  0
  8  4  1  0  0  0  0
  9  5  1  0  0  0  0
 10  6  1  0  0  0  0
 11 12  1  0  0  0  0
 11 14  1  0  0  0  0
 12 15  1  0  0  0  0
 13 12  2  0  0  0  0
 15 24  1  0  0  0  0
 16 15  2  0  0  0  0
 16 17  1  0  0  0  0
 17 22  1  0  0  0  0
 18 17  2  0  0  0  0
 18 19  1  0  0  0  0
 19 20  2  0  0  0  0
 20 28  1  0  0  0  0
 20 21  1  0  0  0  0
 21 29  1  0  0  0  0
 22 23  1  0  0  0  0
 22 21  2  0  0  0  0
 23 30  1  0  0  0  0
 24 23  2  0  0  0  0
 24 25  1  0  0  0  0
 26 18  1  0  0  0  0
 27 19  1  0  0  0  0
 31 33  1  0  0  0  0
 31 32  1  1  0  0  0
 33 36  1  0  0  0  0
 34 33  1  0  0  0  0
 35 33  1  0  0  0  0
 36 37  2  0  0  0  0
 36 38  1  0  0  0  0
 37 39  1  0  0  0  0
 40 37  1  0  0  0  0
 41 31  1  0  0  0  0
 42 48  1  0  0  0  0
 43 47  1  0  0  0  0
 43 42  1  0  0  0  0
 44 45  1  0  0  0  0
 44 43  2  0  0  0  0
 45 46  2  0  0  0  0
 46 41  1  0  0  0  0
 46 42  1  0  0  0  0
 48 49  1  0  0  0  0
 48 50  1  0  0  0  0
 51 48  1  0  0  0  0
M  END
>  <MODEL>
4

>  <REMARK>
 VINA RESULT:    -8.223      3.849      9.910
 INTER + INTRA:         -12.334
 INTER:                 -11.700
 INTRA:                  -0.635
 UNBOUND:                -0.506
  Name = 
  8 active torsions:
  status: ('A' for Active; 'I' for Inactive)
    1  A    between atoms: C_1  and  N_2
    2  A    between atoms: C_6  and  S_7
    3  A    between atoms: S_7  and  C_8
    4  A    between atoms: C_8  and  C_9
    5  A    between atoms: C_8  and  C_12
    6  A    between atoms: C_9  and  C_10
    7  A    between atoms: C_14  and  N_18
    8  A    between atoms: C_19  and  C_21
                            x       y       z     vdW  Elec       q    Type
                         _______ _______ _______ _____ _____    ______ ____

>  <TORSDO>
F 8

$$$$
=
 OpenBabel07192307433D

 51 54  0  0  1  0  0  0  0  0999 V2000
    2.4890    7.0070   19.2350 C   0  0  0  0  0  0  0  0  0  0  0  0
    1.5170    7.9040   19.7180 C   0  0  0  0  0  0  0  0  0  0  0  0
    1.2150    9.0910   19.0370 C   0  0  0  0  0  0  0  0  0  0  0  0
    1.9130    9.3990   17.8720 C   0  0  0  0  0  0  0  0  0  0  0  0
    2.8930    8.5280   17.3870 C   0  0  0  0  0  0  0  0  0  0  0  0
    3.1790    7.3400   18.0620 C   0  0  0  0  0  0  0  0  0  0  0  0
    0.9660    7.6560   20.6230 H   0  0  0  0  0  0  0  0  0  0  0  0
    1.7200   10.3120   17.3170 H   0  0  0  0  0  0  0  0  0  0  0  0
    3.4300    8.7830   16.4770 H   0  0  0  0  0  0  0  0  0  0  0  0
    3.9440    6.6790   17.6600 H   0  0  0  0  0  0  0  0  0  0  0  0
    0.2010    9.8970   19.5810 N   0  0  0  0  0  0  0  0  0  0  0  0
    0.3190   11.0340   20.3630 C   0  0  0  0  0  0  0  0  0  0  0  0
    1.3670   11.5330   20.7440 O   0  0  0  0  0  0  0  0  0  0  0  0
   -0.7620    9.6710   19.3340 H   0  0  0  0  0  0  0  0  0  0  0  0
   -1.0290   11.6400   20.6830 C   0  0  0  0  0  0  0  0  0  0  0  0
   -1.3210   11.6090   22.0310 N   0  0  0  0  0  0  0  0  0  0  0  0
   -2.5020   12.0970   22.4430 C   0  0  0  0  0  0  0  0  0  0  0  0
   -2.8190   12.0680   23.7930 C   0  0  0  0  0  0  0  0  0  0  0  0
   -4.0400   12.5550   24.2700 C   0  0  0  0  0  0  0  0  0  0  0  0
   -4.9680   13.0860   23.3820 C   0  0  0  0  0  0  0  0  0  0  0  0
   -4.6730   13.1290   22.0200 C   0  0  0  0  0  0  0  0  0  0  0  0
   -3.4440   12.6370   21.5440 C   0  0  0  0  0  0  0  0  0  0  0  0
   -3.1210   12.6610   20.1800 C   0  0  0  0  0  0  0  0  0  0  0  0
   -1.8980   12.1570   19.7280 C   0  0  0  0  0  0  0  0  0  0  0  0
   -1.5990   12.2300   18.0330 Cl  0  0  0  0  0  0  0  0  0  0  0  0
   -2.1030   11.6530   24.4980 H   0  0  0  0  0  0  0  0  0  0  0  0
   -4.2620   12.5170   25.3360 H   0  0  0  0  0  0  0  0  0  0  0  0
   -5.9190   13.4640   23.7490 H   0  0  0  0  0  0  0  0  0  0  0  0
   -5.4090   13.5440   21.3340 H   0  0  0  0  0  0  0  0  0  0  0  0
   -3.8290   13.0720   19.4600 H   0  0  0  0  0  0  0  0  0  0  0  0
    2.7690    5.6820   19.9380 C   0  0  1  0  0  0  0  0  0  0  0  0
    3.6100    5.8340   20.6270 H   0  0  0  0  0  0  0  0  0  0  0  0
    1.5540    5.1950   20.7630 C   0  0  0  0  0  0  0  0  0  0  0  0
    0.6480    5.7520   20.4960 H   0  0  0  0  0  0  0  0  0  0  0  0
    1.7360    5.4110   21.8250 H   0  0  0  0  0  0  0  0  0  0  0  0
    1.2690    3.7220   20.6070 C   0  0  0  0  0  0  0  0  0  0  0  0
    1.5670    2.7970   21.5280 C   0  0  0  0  0  0  0  0  0  0  0  0
    0.7810    3.4030   19.6860 H   0  0  0  0  0  0  0  0  0  0  0  0
    1.3330    1.7500   21.3520 H   0  0  0  0  0  0  0  0  0  0  0  0
    2.0540    3.0510   22.4650 H   0  0  0  0  0  0  0  0  0  0  0  0
    3.2660    4.4320   18.6680 S   0  0  0  0  0  0  0  0  0  0  0  0
    5.7240    4.4790   17.4730 N   0  0  0  0  0  0  0  0  0  0  0  0
    6.9790    4.8990   17.7980 C   0  0  0  0  0  0  0  0  0  0  0  0
    6.9930    5.3350   19.0380 N   0  0  0  0  0  0  0  0  0  0  0  0
    5.7100    5.2360   19.5280 N   0  0  0  0  0  0  0  0  0  0  0  0
    4.9560    4.7490   18.5680 C   0  0  0  0  0  0  0  0  0  0  0  0
    7.8270    4.8670   17.1250 H   0  0  0  0  0  0  0  0  0  0  0  0
    5.3200    3.9310   16.2060 C   0  0  0  0  0  0  0  0  0  0  0  0
    6.1420    3.3490   15.7800 H   0  0  0  0  0  0  0  0  0  0  0  0
    5.0690    4.7570   15.5360 H   0  0  0  0  0  0  0  0  0  0  0  0
    4.4570    3.2740   16.3490 H   0  0  0  0  0  0  0  0  0  0  0  0
  1  2  1  0  0  0  0
  1 31  1  0  0  0  0
  2  7  1  0  0  0  0
  3 11  1  0  0  0  0
  3  2  2  0  0  0  0
  4  3  1  0  0  0  0
  5  4  2  0  0  0  0
  5  6  1  0  0  0  0
  6  1  2  0  0  0  0
  8  4  1  0  0  0  0
  9  5  1  0  0  0  0
 10  6  1  0  0  0  0
 11 12  1  0  0  0  0
 12 15  1  0  0  0  0
 12 13  2  0  0  0  0
 14 11  1  0  0  0  0
 15 16  1  0  0  0  0
 16 17  2  0  0  0  0
 17 18  1  0  0  0  0
 18 19  2  0  0  0  0
 18 26  1  0  0  0  0
 19 27  1  0  0  0  0
 20 28  1  0  0  0  0
 20 19  1  0  0  0  0
 21 20  2  0  0  0  0
 22 21  1  0  0  0  0
 22 17  1  0  0  0  0
 23 22  2  0  0  0  0
 24 23  1  0  0  0  0
 24 15  2  0  0  0  0
 25 24  1  0  0  0  0
 29 21  1  0  0  0  0
 30 23  1  0  0  0  0
 31 32  1  1  0  0  0
 31 33  1  0  0  0  0
 33 35  1  0  0  0  0
 34 33  1  0  0  0  0
 36 33  1  0  0  0  0
 36 37  2  0  0  0  0
 37 40  1  0  0  0  0
 38 36  1  0  0  0  0
 39 37  1  0  0  0  0
 41 31  1  0  0  0  0
 42 43  1  0  0  0  0
 42 46  1  0  0  0  0
 43 44  2  0  0  0  0
 44 45  1  0  0  0  0
 46 41  1  0  0  0  0
 46 45  2  0  0  0  0
 47 43  1  0  0  0  0
 48 51  1  0  0  0  0
 48 42  1  0  0  0  0
 49 48  1  0  0  0  0
 50 48  1  0  0  0  0
M  END
>  <MODEL>
5

>  <REMARK>
 VINA RESULT:    -8.097      3.606      9.818
 INTER + INTRA:         -12.152
 INTER:                 -11.530
 INTRA:                  -0.622
 UNBOUND:                -0.506
  Name = 
  8 active torsions:
  status: ('A' for Active; 'I' for Inactive)
    1  A    between atoms: C_1  and  N_2
    2  A    between atoms: C_6  and  S_7
    3  A    between atoms: S_7  and  C_8
    4  A    between atoms: C_8  and  C_9
    5  A    between atoms: C_8  and  C_12
    6  A    between atoms: C_9  and  C_10
    7  A    between atoms: C_14  and  N_18
    8  A    between atoms: C_19  and  C_21
                            x       y       z     vdW  Elec       q    Type
                         _______ _______ _______ _____ _____    ______ ____

>  <TORSDO>
F 8

$$$$
=
 OpenBabel07192307433D

 51 54  0  0  1  0  0  0  0  0999 V2000
    4.2620    4.0130   16.7990 C   0  0  0  0  0  0  0  0  0  0  0  0
    3.6550    5.1460   17.3740 C   0  0  0  0  0  0  0  0  0  0  0  0
    2.5050    5.0350   18.1680 C   0  0  0  0  0  0  0  0  0  0  0  0
    1.9390    3.7790   18.3670 C   0  0  0  0  0  0  0  0  0  0  0  0
    2.5190    2.6450   17.7900 C   0  0  0  0  0  0  0  0  0  0  0  0
    3.6720    2.7600   17.0120 C   0  0  0  0  0  0  0  0  0  0  0  0
    4.1060    6.1240   17.2260 H   0  0  0  0  0  0  0  0  0  0  0  0
    1.0420    3.6460   18.9660 H   0  0  0  0  0  0  0  0  0  0  0  0
    2.0640    1.6710   17.9530 H   0  0  0  0  0  0  0  0  0  0  0  0
    4.1040    1.8600   16.5780 H   0  0  0  0  0  0  0  0  0  0  0  0
    2.0020    6.2210   18.7290 N   0  0  0  0  0  0  0  0  0  0  0  0
    1.9430    6.5960   20.0610 C   0  0  0  0  0  0  0  0  0  0  0  0
    2.3130    5.9220   21.0100 O   0  0  0  0  0  0  0  0  0  0  0  0
    1.6840    6.9460   18.0870 H   0  0  0  0  0  0  0  0  0  0  0  0
    1.3840    7.9910   20.2280 C   0  0  0  0  0  0  0  0  0  0  0  0
    0.7360    8.1650   21.4340 N   0  0  0  0  0  0  0  0  0  0  0  0
    0.1750    9.3570   21.6940 C   0  0  0  0  0  0  0  0  0  0  0  0
   -0.4880    9.5510   22.8980 C   0  0  0  0  0  0  0  0  0  0  0  0
   -1.0970   10.7700   23.2110 C   0  0  0  0  0  0  0  0  0  0  0  0
   -1.0440   11.8230   22.3060 C   0  0  0  0  0  0  0  0  0  0  0  0
   -0.3800   11.6550   21.0900 C   0  0  0  0  0  0  0  0  0  0  0  0
    0.2300   10.4270   20.7780 C   0  0  0  0  0  0  0  0  0  0  0  0
    0.8980   10.2250   19.5620 C   0  0  0  0  0  0  0  0  0  0  0  0
    1.4880    8.9940   19.2690 C   0  0  0  0  0  0  0  0  0  0  0  0
    2.2820    8.8470   17.7470 Cl  0  0  0  0  0  0  0  0  0  0  0  0
   -0.5400    8.7340   23.6130 H   0  0  0  0  0  0  0  0  0  0  0  0
   -1.6120   10.8910   24.1620 H   0  0  0  0  0  0  0  0  0  0  0  0
   -1.5170   12.7720   22.5450 H   0  0  0  0  0  0  0  0  0  0  0  0
   -0.3480   12.4860   20.3890 H   0  0  0  0  0  0  0  0  0  0  0  0
    0.9570   11.0340   18.8330 H   0  0  0  0  0  0  0  0  0  0  0  0
    5.5530    4.1240   15.9930 C   0  0  1  0  0  0  0  0  0  0  0  0
    6.3150    3.5060   16.4860 H   0  0  0  0  0  0  0  0  0  0  0  0
    5.3790    3.6070   14.5450 C   0  0  0  0  0  0  0  0  0  0  0  0
    4.4240    3.9400   14.1210 H   0  0  0  0  0  0  0  0  0  0  0  0
    5.3320    2.5090   14.5630 H   0  0  0  0  0  0  0  0  0  0  0  0
    6.4860    4.0320   13.6150 C   0  0  0  0  0  0  0  0  0  0  0  0
    6.5690    3.6700   12.3280 C   0  0  0  0  0  0  0  0  0  0  0  0
    7.2590    4.6830   14.0240 H   0  0  0  0  0  0  0  0  0  0  0  0
    7.3950    4.0150   11.7110 H   0  0  0  0  0  0  0  0  0  0  0  0
    5.8300    3.0240   11.8620 H   0  0  0  0  0  0  0  0  0  0  0  0
    6.1170    5.8840   16.0170 S   0  0  0  0  0  0  0  0  0  0  0  0
    7.6580    6.9980   17.9820 N   0  0  0  0  0  0  0  0  0  0  0  0
    8.2620    6.5770   19.1290 C   0  0  0  0  0  0  0  0  0  0  0  0
    8.0940    5.2810   19.2690 N   0  0  0  0  0  0  0  0  0  0  0  0
    7.3280    4.8450   18.2110 N   0  0  0  0  0  0  0  0  0  0  0  0
    7.0510    5.8900   17.4650 C   0  0  0  0  0  0  0  0  0  0  0  0
    8.8000    7.2260   19.8090 H   0  0  0  0  0  0  0  0  0  0  0  0
    7.6330    8.3480   17.4880 C   0  0  0  0  0  0  0  0  0  0  0  0
    7.7670    9.0450   18.3210 H   0  0  0  0  0  0  0  0  0  0  0  0
    6.6650    8.5250   17.0140 H   0  0  0  0  0  0  0  0  0  0  0  0
    8.4460    8.4920   16.7710 H   0  0  0  0  0  0  0  0  0  0  0  0
  1  6  2  0  0  0  0
  1  2  1  0  0  0  0
  2  3  2  0  0  0  0
  3  4  1  0  0  0  0
  3 11  1  0  0  0  0
  4  8  1  0  0  0  0
  5  9  1  0  0  0  0
  5  4  2  0  0  0  0
  6  5  1  0  0  0  0
  7  2  1  0  0  0  0
 10  6  1  0  0  0  0
 11 12  1  0  0  0  0
 12 15  1  0  0  0  0
 12 13  2  0  0  0  0
 14 11  1  0  0  0  0
 15 16  1  0  0  0  0
 16 17  2  0  0  0  0
 17 18  1  0  0  0  0
 18 19  2  0  0  0  0
 18 26  1  0  0  0  0
 19 27  1  0  0  0  0
 20 28  1  0  0  0  0
 20 19  1  0  0  0  0
 21 20  2  0  0  0  0
 22 21  1  0  0  0  0
 22 17  1  0  0  0  0
 23 22  2  0  0  0  0
 24 23  1  0  0  0  0
 24 15  2  0  0  0  0
 25 24  1  0  0  0  0
 29 21  1  0  0  0  0
 30 23  1  0  0  0  0
 31 41  1  0  0  0  0
 31 32  1  1  0  0  0
 31  1  1  0  0  0  0
 33 35  1  0  0  0  0
 33 31  1  0  0  0  0
 34 33  1  0  0  0  0
 36 38  1  0  0  0  0
 36 33  1  0  0  0  0
 37 36  2  0  0  0  0
 39 37  1  0  0  0  0
 40 37  1  0  0  0  0
 41 46  1  0  0  0  0
 42 43  1  0  0  0  0
 43 44  2  0  0  0  0
 43 47  1  0  0  0  0
 45 44  1  0  0  0  0
 46 42  1  0  0  0  0
 46 45  2  0  0  0  0
 48 42  1  0  0  0  0
 48 49  1  0  0  0  0
 50 48  1  0  0  0  0
 51 48  1  0  0  0  0
M  END
>  <MODEL>
6

>  <REMARK>
 VINA RESULT:    -8.085      3.590      9.317
 INTER + INTRA:         -12.136
 INTER:                 -11.603
 INTRA:                  -0.534
 UNBOUND:                -0.506
  Name = 
  8 active torsions:
  status: ('A' for Active; 'I' for Inactive)
    1  A    between atoms: C_1  and  N_2
    2  A    between atoms: C_6  and  S_7
    3  A    between atoms: S_7  and  C_8
    4  A    between atoms: C_8  and  C_9
    5  A    between atoms: C_8  and  C_12
    6  A    between atoms: C_9  and  C_10
    7  A    between atoms: C_14  and  N_18
    8  A    between atoms: C_19  and  C_21
                            x       y       z     vdW  Elec       q    Type
                         _______ _______ _______ _____ _____    ______ ____

>  <TORSDO>
F 8

$$$$
=
 OpenBabel07192307433D

 51 54  0  0  1  0  0  0  0  0999 V2000
    4.5960    4.9760   17.6150 C   0  0  0  0  0  0  0  0  0  0  0  0
    3.9790    6.1660   18.0460 C   0  0  0  0  0  0  0  0  0  0  0  0
    2.8750    6.1460   18.9090 C   0  0  0  0  0  0  0  0  0  0  0  0
    2.3640    4.9190   19.3260 C   0  0  0  0  0  0  0  0  0  0  0  0
    2.9550    3.7280   18.8950 C   0  0  0  0  0  0  0  0  0  0  0  0
    4.0630    3.7540   18.0470 C   0  0  0  0  0  0  0  0  0  0  0  0
    4.3860    7.1230   17.7270 H   0  0  0  0  0  0  0  0  0  0  0  0
    1.5040    4.8550   19.9860 H   0  0  0  0  0  0  0  0  0  0  0  0
    2.5440    2.7770   19.2290 H   0  0  0  0  0  0  0  0  0  0  0  0
    4.5050    2.8110   17.7300 H   0  0  0  0  0  0  0  0  0  0  0  0
    2.3580    7.3890   19.3110 N   0  0  0  0  0  0  0  0  0  0  0  0
    2.0350    8.4890   18.5330 C   0  0  0  0  0  0  0  0  0  0  0  0
    2.1720    8.5720   17.3230 O   0  0  0  0  0  0  0  0  0  0  0  0
    2.1250    7.5040   20.2960 H   0  0  0  0  0  0  0  0  0  0  0  0
    1.4420    9.6070   19.3610 C   0  0  0  0  0  0  0  0  0  0  0  0
    0.7490    9.1460   20.4620 N   0  0  0  0  0  0  0  0  0  0  0  0
    0.1550   10.0420   21.2660 C   0  0  0  0  0  0  0  0  0  0  0  0
   -0.5530    9.5990   22.3750 C   0  0  0  0  0  0  0  0  0  0  0  0
   -1.1980   10.4920   23.2370 C   0  0  0  0  0  0  0  0  0  0  0  0
   -1.1350   11.8590   22.9920 C   0  0  0  0  0  0  0  0  0  0  0  0
   -0.4260   12.3290   21.8870 C   0  0  0  0  0  0  0  0  0  0  0  0
    0.2190   11.4290   21.0210 C   0  0  0  0  0  0  0  0  0  0  0  0
    0.9330   11.8710   19.8990 C   0  0  0  0  0  0  0  0  0  0  0  0
    1.5590   10.9570   19.0460 C   0  0  0  0  0  0  0  0  0  0  0  0
    2.4080   11.6020   17.6930 Cl  0  0  0  0  0  0  0  0  0  0  0  0
   -0.6130    8.5330   22.5760 H   0  0  0  0  0  0  0  0  0  0  0  0
   -1.7480   10.1150   24.0970 H   0  0  0  0  0  0  0  0  0  0  0  0
   -1.6350   12.5560   23.6590 H   0  0  0  0  0  0  0  0  0  0  0  0
   -0.3870   13.4010   21.7040 H   0  0  0  0  0  0  0  0  0  0  0  0
    1.0010   12.9370   19.6820 H   0  0  0  0  0  0  0  0  0  0  0  0
    5.8410    4.9980   16.7330 C   0  0  1  0  0  0  0  0  0  0  0  0
    5.8590    5.9550   16.1960 H   0  0  0  0  0  0  0  0  0  0  0  0
    7.1420    4.8880   17.5620 C   0  0  0  0  0  0  0  0  0  0  0  0
    7.9650    4.4950   16.9530 H   0  0  0  0  0  0  0  0  0  0  0  0
    6.9890    4.1550   18.3670 H   0  0  0  0  0  0  0  0  0  0  0  0
    7.5830    6.1950   18.1710 C   0  0  0  0  0  0  0  0  0  0  0  0
    7.5720    7.3680   17.5240 C   0  0  0  0  0  0  0  0  0  0  0  0
    7.9220    6.1740   19.2070 H   0  0  0  0  0  0  0  0  0  0  0  0
    7.9020    8.2740   18.0240 H   0  0  0  0  0  0  0  0  0  0  0  0
    7.2450    7.4540   16.4910 H   0  0  0  0  0  0  0  0  0  0  0  0
    5.7130    3.6310   15.4940 S   0  0  0  0  0  0  0  0  0  0  0  0
    6.4770    3.9480   12.8890 N   0  0  0  0  0  0  0  0  0  0  0  0
    7.3650    4.7200   12.2010 C   0  0  0  0  0  0  0  0  0  0  0  0
    8.0630    5.4500   13.0420 N   0  0  0  0  0  0  0  0  0  0  0  0
    7.5980    5.1800   14.3100 N   0  0  0  0  0  0  0  0  0  0  0  0
    6.6290    4.3000   14.1990 C   0  0  0  0  0  0  0  0  0  0  0  0
    7.4690    4.7180   11.1230 H   0  0  0  0  0  0  0  0  0  0  0  0
    5.5480    3.0150   12.3130 C   0  0  0  0  0  0  0  0  0  0  0  0
    4.5620    3.4830   12.2320 H   0  0  0  0  0  0  0  0  0  0  0  0
    5.4860    2.1400   12.9640 H   0  0  0  0  0  0  0  0  0  0  0  0
    5.8870    2.7280   11.3130 H   0  0  0  0  0  0  0  0  0  0  0  0
  1  2  2  0  0  0  0
  1  6  1  0  0  0  0
  2  3  1  0  0  0  0
  3 11  1  0  0  0  0
  3  4  2  0  0  0  0
  4  8  1  0  0  0  0
  5  9  1  0  0  0  0
  5  4  1  0  0  0  0
  6  5  2  0  0  0  0
  7  2  1  0  0  0  0
 10  6  1  0  0  0  0
 11 14  1  0  0  0  0
 12 11  1  0  0  0  0
 12 15  1  0  0  0  0
 13 12  2  0  0  0  0
 15 16  1  0  0  0  0
 16 17  2  0  0  0  0
 17 18  1  0  0  0  0
 18 26  1  0  0  0  0
 18 19  2  0  0  0  0
 19 27  1  0  0  0  0
 20 19  1  0  0  0  0
 20 28  1  0  0  0  0
 21 20  2  0  0  0  0
 22 17  1  0  0  0  0
 22 21  1  0  0  0  0
 23 22  2  0  0  0  0
 24 15  2  0  0  0  0
 24 23  1  0  0  0  0
 25 24  1  0  0  0  0
 29 21  1  0  0  0  0
 30 23  1  0  0  0  0
 31 32  1  6  0  0  0
 31 33  1  0  0  0  0
 31  1  1  0  0  0  0
 33 36  1  0  0  0  0
 33 35  1  0  0  0  0
 34 33  1  0  0  0  0
 36 38  1  0  0  0  0
 37 39  1  0  0  0  0
 37 36  2  0  0  0  0
 40 37  1  0  0  0  0
 41 31  1  0  0  0  0
 42 46  1  0  0  0  0
 43 42  1  0  0  0  0
 43 44  2  0  0  0  0
 44 45  1  0  0  0  0
 46 45  2  0  0  0  0
 46 41  1  0  0  0  0
 47 43  1  0  0  0  0
 48 42  1  0  0  0  0
 48 50  1  0  0  0  0
 49 48  1  0  0  0  0
 51 48  1  0  0  0  0
M  END
>  <MODEL>
7

>  <REMARK>
 VINA RESULT:    -8.012      3.811      9.409
 INTER + INTRA:         -12.030
 INTER:                 -11.438
 INTRA:                  -0.592
 UNBOUND:                -0.506
  Name = 
  8 active torsions:
  status: ('A' for Active; 'I' for Inactive)
    1  A    between atoms: C_1  and  N_2
    2  A    between atoms: C_6  and  S_7
    3  A    between atoms: S_7  and  C_8
    4  A    between atoms: C_8  and  C_9
    5  A    between atoms: C_8  and  C_12
    6  A    between atoms: C_9  and  C_10
    7  A    between atoms: C_14  and  N_18
    8  A    between atoms: C_19  and  C_21
                            x       y       z     vdW  Elec       q    Type
                         _______ _______ _______ _____ _____    ______ ____

>  <TORSDO>
F 8

$$$$
=
 OpenBabel07192307433D

 51 54  0  0  1  0  0  0  0  0999 V2000
    1.6180    7.1530   20.3270 C   0  0  0  0  0  0  0  0  0  0  0  0
    2.6020    6.9420   19.3420 C   0  0  0  0  0  0  0  0  0  0  0  0
    3.1690    5.6770   19.1340 C   0  0  0  0  0  0  0  0  0  0  0  0
    2.7660    4.6150   19.9390 C   0  0  0  0  0  0  0  0  0  0  0  0
    1.8020    4.8100   20.9320 C   0  0  0  0  0  0  0  0  0  0  0  0
    1.2310    6.0680   21.1250 C   0  0  0  0  0  0  0  0  0  0  0  0
    2.9080    7.7720   18.7080 H   0  0  0  0  0  0  0  0  0  0  0  0
    3.1850    3.6200   19.8210 H   0  0  0  0  0  0  0  0  0  0  0  0
    1.4980    3.9700   21.5540 H   0  0  0  0  0  0  0  0  0  0  0  0
    0.4790    6.1910   21.9030 H   0  0  0  0  0  0  0  0  0  0  0  0
    4.1130    5.5650   18.1000 N   0  0  0  0  0  0  0  0  0  0  0  0
    5.0980    4.6060   17.9220 C   0  0  0  0  0  0  0  0  0  0  0  0
    5.3330    3.6760   18.6770 O   0  0  0  0  0  0  0  0  0  0  0  0
    4.0510    6.2310   17.3320 H   0  0  0  0  0  0  0  0  0  0  0  0
    5.8600    4.8170   16.6330 C   0  0  0  0  0  0  0  0  0  0  0  0
    5.3620    4.0630   15.5900 N   0  0  0  0  0  0  0  0  0  0  0  0
    5.9680    4.1440   14.3950 C   0  0  0  0  0  0  0  0  0  0  0  0
    5.4880    3.3890   13.3340 C   0  0  0  0  0  0  0  0  0  0  0  0
    6.0900    3.4310   12.0730 C   0  0  0  0  0  0  0  0  0  0  0  0
    7.1960    4.2460   11.8600 C   0  0  0  0  0  0  0  0  0  0  0  0
    7.6960    5.0170   12.9090 C   0  0  0  0  0  0  0  0  0  0  0  0
    7.0880    4.9720   14.1770 C   0  0  0  0  0  0  0  0  0  0  0  0
    7.5710    5.7300   15.2520 C   0  0  0  0  0  0  0  0  0  0  0  0
    6.9580    5.6610   16.5050 C   0  0  0  0  0  0  0  0  0  0  0  0
    7.6310    6.6300   17.7610 Cl  0  0  0  0  0  0  0  0  0  0  0  0
    4.6260    2.7450   13.4870 H   0  0  0  0  0  0  0  0  0  0  0  0
    5.6920    2.8250   11.2600 H   0  0  0  0  0  0  0  0  0  0  0  0
    7.6680    4.2800   10.8810 H   0  0  0  0  0  0  0  0  0  0  0  0
    8.5640    5.6490   12.7310 H   0  0  0  0  0  0  0  0  0  0  0  0
    8.4370    6.3790   15.1150 H   0  0  0  0  0  0  0  0  0  0  0  0
    0.9500    8.5130   20.5070 C   0  0  1  0  0  0  0  0  0  0  0  0
   -0.1350    8.3540   20.5620 H   0  0  0  0  0  0  0  0  0  0  0  0
    1.4000    9.2110   21.8120 C   0  0  0  0  0  0  0  0  0  0  0  0
    1.7960   10.2130   21.6060 H   0  0  0  0  0  0  0  0  0  0  0  0
    2.2330    8.6440   22.2500 H   0  0  0  0  0  0  0  0  0  0  0  0
    0.3030    9.3360   22.8390 C   0  0  0  0  0  0  0  0  0  0  0  0
   -0.6460   10.2800   22.8160 C   0  0  0  0  0  0  0  0  0  0  0  0
    0.2860    8.6000   23.6430 H   0  0  0  0  0  0  0  0  0  0  0  0
   -1.4100   10.3120   23.5880 H   0  0  0  0  0  0  0  0  0  0  0  0
   -0.6830   11.0420   22.0420 H   0  0  0  0  0  0  0  0  0  0  0  0
    1.3180    9.5550   19.0240 S   0  0  0  0  0  0  0  0  0  0  0  0
    0.0350   11.8960   19.6120 N   0  0  0  0  0  0  0  0  0  0  0  0
   -1.2090   12.4220   19.4240 C   0  0  0  0  0  0  0  0  0  0  0  0
   -1.9900   11.5240   18.8670 N   0  0  0  0  0  0  0  0  0  0  0  0
   -1.2340   10.3950   18.6470 N   0  0  0  0  0  0  0  0  0  0  0  0
   -0.0160   10.6440   19.0720 C   0  0  0  0  0  0  0  0  0  0  0  0
   -1.4940   13.4290   19.7020 H   0  0  0  0  0  0  0  0  0  0  0  0
    1.1570   12.5740   20.2010 C   0  0  0  0  0  0  0  0  0  0  0  0
    1.5140   13.3520   19.5200 H   0  0  0  0  0  0  0  0  0  0  0  0
    1.9520   11.8450   20.3730 H   0  0  0  0  0  0  0  0  0  0  0  0
    0.8520   13.0410   21.1420 H   0  0  0  0  0  0  0  0  0  0  0  0
  1 31  1  0  0  0  0
  1  6  1  0  0  0  0
  2  1  2  0  0  0  0
  3  2  1  0  0  0  0
  3  4  2  0  0  0  0
  4  5  1  0  0  0  0
  5  6  2  0  0  0  0
  5  9  1  0  0  0  0
  6 10  1  0  0  0  0
  7  2  1  0  0  0  0
  8  4  1  0  0  0  0
 11  3  1  0  0  0  0
 12 11  1  0  0  0  0
 12 13  2  0  0  0  0
 14 11  1  0  0  0  0
 15 12  1  0  0  0  0
 16 15  2  0  0  0  0
 17 16  1  0  0  0  0
 18 26  1  0  0  0  0
 18 17  2  0  0  0  0
 19 18  1  0  0  0  0
 20 19  2  0  0  0  0
 20 21  1  0  0  0  0
 21 22  2  0  0  0  0
 22 17  1  0  0  0  0
 22 23  1  0  0  0  0
 23 24  2  0  0  0  0
 24 15  1  0  0  0  0
 24 25  1  0  0  0  0
 27 19  1  0  0  0  0
 28 20  1  0  0  0  0
 29 21  1  0  0  0  0
 30 23  1  0  0  0  0
 31 32  1  1  0  0  0
 31 33  1  0  0  0  0
 33 35  1  0  0  0  0
 33 36  1  0  0  0  0
 34 33  1  0  0  0  0
 36 38  1  0  0  0  0
 37 36  2  0  0  0  0
 37 39  1  0  0  0  0
 40 37  1  0  0  0  0
 41 46  1  0  0  0  0
 41 31  1  0  0  0  0
 42 48  1  0  0  0  0
 43 42  1  0  0  0  0
 43 47  1  0  0  0  0
 44 43  2  0  0  0  0
 45 44  1  0  0  0  0
 45 46  2  0  0  0  0
 46 42  1  0  0  0  0
 48 50  1  0  0  0  0
 48 51  1  0  0  0  0
 49 48  1  0  0  0  0
M  END
>  <MODEL>
8

>  <REMARK>
 VINA RESULT:    -7.921      2.525      4.424
 INTER + INTRA:         -11.900
 INTER:                 -11.019
 INTRA:                  -0.881
 UNBOUND:                -0.506
  Name = 
  8 active torsions:
  status: ('A' for Active; 'I' for Inactive)
    1  A    between atoms: C_1  and  N_2
    2  A    between atoms: C_6  and  S_7
    3  A    between atoms: S_7  and  C_8
    4  A    between atoms: C_8  and  C_9
    5  A    between atoms: C_8  and  C_12
    6  A    between atoms: C_9  and  C_10
    7  A    between atoms: C_14  and  N_18
    8  A    between atoms: C_19  and  C_21
                            x       y       z     vdW  Elec       q    Type
                         _______ _______ _______ _____ _____    ______ ____

>  <TORSDO>
F 8

$$$$
=
 OpenBabel07192307433D

 51 54  0  0  1  0  0  0  0  0999 V2000
    4.4550    5.2750   17.2340 C   0  0  0  0  0  0  0  0  0  0  0  0
    4.0030    6.5450   17.6400 C   0  0  0  0  0  0  0  0  0  0  0  0
    2.7730    6.7090   18.2940 C   0  0  0  0  0  0  0  0  0  0  0  0
    1.9730    5.5920   18.5200 C   0  0  0  0  0  0  0  0  0  0  0  0
    2.3990    4.3250   18.1090 C   0  0  0  0  0  0  0  0  0  0  0  0
    3.6310    4.1670   17.4720 C   0  0  0  0  0  0  0  0  0  0  0  0
    4.6350    7.4140   17.4720 H   0  0  0  0  0  0  0  0  0  0  0  0
    1.0090    5.6720   19.0130 H   0  0  0  0  0  0  0  0  0  0  0  0
    1.7620    3.4630   18.2920 H   0  0  0  0  0  0  0  0  0  0  0  0
    3.9390    3.1680   17.1650 H   0  0  0  0  0  0  0  0  0  0  0  0
    2.4340    8.0120   18.6930 N   0  0  0  0  0  0  0  0  0  0  0  0
    1.4730    8.8600   18.1670 C   0  0  0  0  0  0  0  0  0  0  0  0
    0.7480    8.6150   17.2160 O   0  0  0  0  0  0  0  0  0  0  0  0
    2.9010    8.3880   19.5170 H   0  0  0  0  0  0  0  0  0  0  0  0
    1.3860   10.1580   18.9390 C   0  0  0  0  0  0  0  0  0  0  0  0
    1.9570   11.2180   18.2660 N   0  0  0  0  0  0  0  0  0  0  0  0
    1.9640   12.4240   18.8580 C   0  0  0  0  0  0  0  0  0  0  0  0
    2.5410   13.5020   18.2020 C   0  0  0  0  0  0  0  0  0  0  0  0
    2.5820   14.7750   18.7800 C   0  0  0  0  0  0  0  0  0  0  0  0
    2.0340   14.9810   20.0400 C   0  0  0  0  0  0  0  0  0  0  0  0
    1.4440   13.9150   20.7190 C   0  0  0  0  0  0  0  0  0  0  0  0
    1.4060   12.6350   20.1350 C   0  0  0  0  0  0  0  0  0  0  0  0
    0.8270   11.5420   20.7950 C   0  0  0  0  0  0  0  0  0  0  0  0
    0.8100   10.2780   20.2000 C   0  0  0  0  0  0  0  0  0  0  0  0
    0.0780    9.0010   21.0950 Cl  0  0  0  0  0  0  0  0  0  0  0  0
    2.9770   13.3540   17.2170 H   0  0  0  0  0  0  0  0  0  0  0  0
    3.0440   15.6010   18.2420 H   0  0  0  0  0  0  0  0  0  0  0  0
    2.0640   15.9690   20.4930 H   0  0  0  0  0  0  0  0  0  0  0  0
    1.0210   14.0880   21.7060 H   0  0  0  0  0  0  0  0  0  0  0  0
    0.3880   11.6740   21.7840 H   0  0  0  0  0  0  0  0  0  0  0  0
    5.8230    5.0860   16.5860 C   0  0  1  0  0  0  0  0  0  0  0  0
    6.0610    5.9970   16.0230 H   0  0  0  0  0  0  0  0  0  0  0  0
    6.9380    4.8670   17.6380 C   0  0  0  0  0  0  0  0  0  0  0  0
    7.7360    4.2300   17.2380 H   0  0  0  0  0  0  0  0  0  0  0  0
    6.5170    4.3190   18.4920 H   0  0  0  0  0  0  0  0  0  0  0  0
    7.5560    6.1480   18.1370 C   0  0  0  0  0  0  0  0  0  0  0  0
    7.5760    7.2940   17.4450 C   0  0  0  0  0  0  0  0  0  0  0  0
    8.0060    6.1310   19.1300 H   0  0  0  0  0  0  0  0  0  0  0  0
    8.0380    8.1830   17.8650 H   0  0  0  0  0  0  0  0  0  0  0  0
    7.1450    7.3750   16.4510 H   0  0  0  0  0  0  0  0  0  0  0  0
    5.7270    3.6690   15.4020 S   0  0  0  0  0  0  0  0  0  0  0  0
    6.4540    3.9280   12.7790 N   0  0  0  0  0  0  0  0  0  0  0  0
    7.3280    4.6880   12.0610 C   0  0  0  0  0  0  0  0  0  0  0  0
    8.0350    5.4400   12.8750 N   0  0  0  0  0  0  0  0  0  0  0  0
    7.5900    5.1980   14.1550 N   0  0  0  0  0  0  0  0  0  0  0  0
    6.6220    4.3120   14.0780 C   0  0  0  0  0  0  0  0  0  0  0  0
    7.4170    4.6610   10.9820 H   0  0  0  0  0  0  0  0  0  0  0  0
    5.5200    2.9790   12.2380 C   0  0  0  0  0  0  0  0  0  0  0  0
    5.4670    3.0960   11.1510 H   0  0  0  0  0  0  0  0  0  0  0  0
    4.5380    3.1710   12.6750 H   0  0  0  0  0  0  0  0  0  0  0  0
    5.8530    1.9630   12.4690 H   0  0  0  0  0  0  0  0  0  0  0  0
  1  6  2  0  0  0  0
  1  2  1  0  0  0  0
  2  3  2  0  0  0  0
  3  4  1  0  0  0  0
  3 11  1  0  0  0  0
  4  8  1  0  0  0  0
  5  9  1  0  0  0  0
  5  4  2  0  0  0  0
  6  5  1  0  0  0  0
  7  2  1  0  0  0  0
 10  6  1  0  0  0  0
 11 14  1  0  0  0  0
 12 11  1  0  0  0  0
 12 15  1  0  0  0  0
 13 12  2  0  0  0  0
 15 24  1  0  0  0  0
 16 17  1  0  0  0  0
 16 15  2  0  0  0  0
 17 22  1  0  0  0  0
 18 19  1  0  0  0  0
 18 17  2  0  0  0  0
 19 20  2  0  0  0  0
 20 28  1  0  0  0  0
 20 21  1  0  0  0  0
 21 29  1  0  0  0  0
 22 21  2  0  0  0  0
 22 23  1  0  0  0  0
 23 30  1  0  0  0  0
 24 23  2  0  0  0  0
 24 25  1  0  0  0  0
 26 18  1  0  0  0  0
 27 19  1  0  0  0  0
 31 32  1  6  0  0  0
 31  1  1  0  0  0  0
 31 33  1  0  0  0  0
 33 36  1  0  0  0  0
 33 35  1  0  0  0  0
 34 33  1  0  0  0  0
 36 38  1  0  0  0  0
 37 39  1  0  0  0  0
 37 36  2  0  0  0  0
 40 37  1  0  0  0  0
 41 31  1  0  0  0  0
 42 46  1  0  0  0  0
 43 42  1  0  0  0  0
 43 44  2  0  0  0  0
 44 45  1  0  0  0  0
 46 45  2  0  0  0  0
 46 41  1  0  0  0  0
 47 43  1  0  0  0  0
 48 51  1  0  0  0  0
 48 50  1  0  0  0  0
 48 42  1  0  0  0  0
 49 48  1  0  0  0  0
M  END
>  <MODEL>
9

>  <REMARK>
 VINA RESULT:    -7.871      3.745      9.259
 INTER + INTRA:         -11.827
 INTER:                 -10.761
 INTRA:                  -1.067
 UNBOUND:                -0.506
  Name = 
  8 active torsions:
  status: ('A' for Active; 'I' for Inactive)
    1  A    between atoms: C_1  and  N_2
    2  A    between atoms: C_6  and  S_7
    3  A    between atoms: S_7  and  C_8
    4  A    between atoms: C_8  and  C_9
    5  A    between atoms: C_8  and  C_12
    6  A    between atoms: C_9  and  C_10
    7  A    between atoms: C_14  and  N_18
    8  A    between atoms: C_19  and  C_21
                            x       y       z     vdW  Elec       q    Type
                         _______ _______ _______ _____ _____    ______ ____

>  <TORSDO>
F 8

$$$$
=
 OpenBabel07192307433D

 51 54  0  0  1  0  0  0  0  0999 V2000
   -0.5620   10.9570   20.9210 C   0  0  0  0  0  0  0  0  0  0  0  0
    0.2010    9.9800   20.2540 C   0  0  0  0  0  0  0  0  0  0  0  0
    0.8300    8.9400   20.9530 C   0  0  0  0  0  0  0  0  0  0  0  0
    0.7160    8.8930   22.3400 C   0  0  0  0  0  0  0  0  0  0  0  0
   -0.0230    9.8650   23.0200 C   0  0  0  0  0  0  0  0  0  0  0  0
   -0.6590   10.8890   22.3170 C   0  0  0  0  0  0  0  0  0  0  0  0
    0.2790   10.0130   19.1690 H   0  0  0  0  0  0  0  0  0  0  0  0
    1.1950    8.1120   22.9250 H   0  0  0  0  0  0  0  0  0  0  0  0
   -0.1010    9.8150   24.1040 H   0  0  0  0  0  0  0  0  0  0  0  0
   -1.2310   11.6300   22.8720 H   0  0  0  0  0  0  0  0  0  0  0  0
    1.5330    7.9940   20.1900 N   0  0  0  0  0  0  0  0  0  0  0  0
    2.0190    8.1060   18.8970 C   0  0  0  0  0  0  0  0  0  0  0  0
    1.8930    9.0790   18.1700 O   0  0  0  0  0  0  0  0  0  0  0  0
    1.7840    7.1170   20.6440 H   0  0  0  0  0  0  0  0  0  0  0  0
    2.7800    6.8700   18.4730 C   0  0  0  0  0  0  0  0  0  0  0  0
    3.6550    7.1130   17.4350 N   0  0  0  0  0  0  0  0  0  0  0  0
    4.3750    6.0890   16.9500 C   0  0  0  0  0  0  0  0  0  0  0  0
    5.2560    6.3090   15.9010 C   0  0  0  0  0  0  0  0  0  0  0  0
    6.0210    5.2740   15.3550 C   0  0  0  0  0  0  0  0  0  0  0  0
    5.9090    3.9870   15.8680 C   0  0  0  0  0  0  0  0  0  0  0  0
    5.0340    3.7390   16.9250 C   0  0  0  0  0  0  0  0  0  0  0  0
    4.2650    4.7830   17.4700 C   0  0  0  0  0  0  0  0  0  0  0  0
    3.3730    4.5640   18.5290 C   0  0  0  0  0  0  0  0  0  0  0  0
    2.6120    5.6150   19.0480 C   0  0  0  0  0  0  0  0  0  0  0  0
    1.5410    5.2400   20.3460 Cl  0  0  0  0  0  0  0  0  0  0  0  0
    5.3500    7.3110   15.4880 H   0  0  0  0  0  0  0  0  0  0  0  0
    6.7010    5.4770   14.5300 H   0  0  0  0  0  0  0  0  0  0  0  0
    6.5010    3.1780   15.4460 H   0  0  0  0  0  0  0  0  0  0  0  0
    4.9530    2.7270   17.3160 H   0  0  0  0  0  0  0  0  0  0  0  0
    3.2640    3.5650   18.9520 H   0  0  0  0  0  0  0  0  0  0  0  0
   -1.3040   12.0480   20.1550 C   0  0  1  0  0  0  0  0  0  0  0  0
   -2.3470   12.0550   20.4980 H   0  0  0  0  0  0  0  0  0  0  0  0
   -0.7040   13.4510   20.4160 C   0  0  0  0  0  0  0  0  0  0  0  0
   -0.7410   13.7020   21.4830 H   0  0  0  0  0  0  0  0  0  0  0  0
   -1.3260   14.2020   19.9090 H   0  0  0  0  0  0  0  0  0  0  0  0
    0.7190   13.5960   19.9410 C   0  0  0  0  0  0  0  0  0  0  0  0
    1.1340   14.5340   19.0800 C   0  0  0  0  0  0  0  0  0  0  0  0
    1.4520   12.8930   20.3380 H   0  0  0  0  0  0  0  0  0  0  0  0
    2.1770   14.5850   18.7810 H   0  0  0  0  0  0  0  0  0  0  0  0
    0.4520   15.2640   18.6500 H   0  0  0  0  0  0  0  0  0  0  0  0
   -1.2790   11.6290   18.3540 S   0  0  0  0  0  0  0  0  0  0  0  0
   -3.5050   11.2680   16.8090 N   0  0  0  0  0  0  0  0  0  0  0  0
   -4.8560   11.3330   16.9820 C   0  0  0  0  0  0  0  0  0  0  0  0
   -5.1280   11.7350   18.2040 N   0  0  0  0  0  0  0  0  0  0  0  0
   -3.9300   11.9010   18.8620 N   0  0  0  0  0  0  0  0  0  0  0  0
   -2.9690   11.5890   18.0220 C   0  0  0  0  0  0  0  0  0  0  0  0
   -5.5820   11.0910   16.2160 H   0  0  0  0  0  0  0  0  0  0  0  0
   -2.8280   10.8770   15.6030 C   0  0  0  0  0  0  0  0  0  0  0  0
   -2.3760    9.8900   15.7410 H   0  0  0  0  0  0  0  0  0  0  0  0
   -2.0470   11.6110   15.3910 H   0  0  0  0  0  0  0  0  0  0  0  0
   -3.5440   10.8260   14.7790 H   0  0  0  0  0  0  0  0  0  0  0  0
  1  6  1  0  0  0  0
  2  1  2  0  0  0  0
  2  3  1  0  0  0  0
  3  4  2  0  0  0  0
  4  8  1  0  0  0  0
  4  5  1  0  0  0  0
  5  9  1  0  0  0  0
  6 10  1  0  0  0  0
  6  5  2  0  0  0  0
  7  2  1  0  0  0  0
 11 14  1  0  0  0  0
 11  3  1  0  0  0  0
 12 11  1  0  0  0  0
 13 12  2  0  0  0  0
 15 12  1  0  0  0  0
 15 24  1  0  0  0  0
 16 15  2  0  0  0  0
 17 16  1  0  0  0  0
 17 22  1  0  0  0  0
 18 17  2  0  0  0  0
 19 20  2  0  0  0  0
 19 18  1  0  0  0  0
 20 21  1  0  0  0  0
 21 29  1  0  0  0  0
 21 22  2  0  0  0  0
 22 23  1  0  0  0  0
 23 30  1  0  0  0  0
 23 24  2  0  0  0  0
 24 25  1  0  0  0  0
 26 18  1  0  0  0  0
 27 19  1  0  0  0  0
 28 20  1  0  0  0  0
 31 33  1  0  0  0  0
 31 32  1  1  0  0  0
 31  1  1  0  0  0  0
 33 34  1  0  0  0  0
 35 33  1  0  0  0  0
 36 38  1  0  0  0  0
 36 33  1  0  0  0  0
 37 36  2  0  0  0  0
 39 37  1  0  0  0  0
 40 37  1  0  0  0  0
 41 31  1  0  0  0  0
 42 43  1  0  0  0  0
 42 46  1  0  0  0  0
 43 44  2  0  0  0  0
 44 45  1  0  0  0  0
 46 41  1  0  0  0  0
 46 45  2  0  0  0  0
 47 43  1  0  0  0  0
 48 49  1  0  0  0  0
 48 42  1  0  0  0  0
 50 48  1  0  0  0  0
 51 48  1  0  0  0  0
M  END
>  <MODEL>
10

>  <REMARK>
 VINA RESULT:    -7.837      1.378      1.507
 INTER + INTRA:         -11.779
 INTER:                 -11.640
 INTRA:                  -0.138
 UNBOUND:                -0.506
  Name = 
  8 active torsions:
  status: ('A' for Active; 'I' for Inactive)
    1  A    between atoms: C_1  and  N_2
    2  A    between atoms: C_6  and  S_7
    3  A    between atoms: S_7  and  C_8
    4  A    between atoms: C_8  and  C_9
    5  A    between atoms: C_8  and  C_12
    6  A    between atoms: C_9  and  C_10
    7  A    between atoms: C_14  and  N_18
    8  A    between atoms: C_19  and  C_21
                            x       y       z     vdW  Elec       q    Type
                         _______ _______ _______ _____ _____    ______ ____

>  <TORSDO>
F 8

$$$$
=
 OpenBabel07192307433D

 51 54  0  0  1  0  0  0  0  0999 V2000
    2.3760    7.1870   19.4600 C   0  0  0  0  0  0  0  0  0  0  0  0
    1.8000    8.2670   20.1550 C   0  0  0  0  0  0  0  0  0  0  0  0
    1.3520    9.4130   19.4840 C   0  0  0  0  0  0  0  0  0  0  0  0
    1.5060    9.4910   18.1020 C   0  0  0  0  0  0  0  0  0  0  0  0
    2.0910    8.4350   17.3980 C   0  0  0  0  0  0  0  0  0  0  0  0
    2.5230    7.2910   18.0700 C   0  0  0  0  0  0  0  0  0  0  0  0
    1.6710    8.1990   21.2330 H   0  0  0  0  0  0  0  0  0  0  0  0
    1.1830   10.3640   17.5410 H   0  0  0  0  0  0  0  0  0  0  0  0
    2.2060    8.5120   16.3190 H   0  0  0  0  0  0  0  0  0  0  0  0
    2.9710    6.4820   17.4960 H   0  0  0  0  0  0  0  0  0  0  0  0
    0.7550   10.4160   20.2650 N   0  0  0  0  0  0  0  0  0  0  0  0
   -0.5140   10.9620   20.1590 C   0  0  0  0  0  0  0  0  0  0  0  0
   -1.3510   10.6650   19.3200 O   0  0  0  0  0  0  0  0  0  0  0  0
    1.2830   10.7680   21.0620 H   0  0  0  0  0  0  0  0  0  0  0  0
   -0.7830   11.9770   21.2470 C   0  0  0  0  0  0  0  0  0  0  0  0
   -1.9430   11.7130   21.9470 N   0  0  0  0  0  0  0  0  0  0  0  0
   -2.3050   12.5560   22.9270 C   0  0  0  0  0  0  0  0  0  0  0  0
   -3.4720   12.3140   23.6380 C   0  0  0  0  0  0  0  0  0  0  0  0
   -3.8970   13.1680   24.6610 C   0  0  0  0  0  0  0  0  0  0  0  0
   -3.1420   14.2890   24.9860 C   0  0  0  0  0  0  0  0  0  0  0  0
   -1.9640   14.5520   24.2890 C   0  0  0  0  0  0  0  0  0  0  0  0
   -1.5400   13.6920   23.2600 C   0  0  0  0  0  0  0  0  0  0  0  0
   -0.3630   13.9340   22.5370 C   0  0  0  0  0  0  0  0  0  0  0  0
    0.0330   13.0720   21.5110 C   0  0  0  0  0  0  0  0  0  0  0  0
    1.4920   13.4600   20.6810 Cl  0  0  0  0  0  0  0  0  0  0  0  0
   -4.0730   11.4430   23.3920 H   0  0  0  0  0  0  0  0  0  0  0  0
   -4.8190   12.9530   25.2000 H   0  0  0  0  0  0  0  0  0  0  0  0
   -3.4700   14.9550   25.7800 H   0  0  0  0  0  0  0  0  0  0  0  0
   -1.3830   15.4340   24.5510 H   0  0  0  0  0  0  0  0  0  0  0  0
    0.2500   14.8050   22.7700 H   0  0  0  0  0  0  0  0  0  0  0  0
    2.8000    5.9110   20.1810 C   0  0  1  0  0  0  0  0  0  0  0  0
    3.0610    6.1750   21.2140 H   0  0  0  0  0  0  0  0  0  0  0  0
    1.6610    4.8640   20.2250 C   0  0  0  0  0  0  0  0  0  0  0  0
    1.6730    4.2320   19.3290 H   0  0  0  0  0  0  0  0  0  0  0  0
    0.6960    5.3890   20.2090 H   0  0  0  0  0  0  0  0  0  0  0  0
    1.7090    3.9710   21.4390 C   0  0  0  0  0  0  0  0  0  0  0  0
    1.3210    2.6890   21.4450 C   0  0  0  0  0  0  0  0  0  0  0  0
    2.0940    4.4040   22.3620 H   0  0  0  0  0  0  0  0  0  0  0  0
    1.3840    2.1000   22.3560 H   0  0  0  0  0  0  0  0  0  0  0  0
    0.9290    2.2010   20.5580 H   0  0  0  0  0  0  0  0  0  0  0  0
    4.3060    5.2330   19.3490 S   0  0  0  0  0  0  0  0  0  0  0  0
    3.8850    2.5520   19.0180 N   0  0  0  0  0  0  0  0  0  0  0  0
    3.1580    1.7560   18.1840 C   0  0  0  0  0  0  0  0  0  0  0  0
    2.5630    2.4940   17.2730 N   0  0  0  0  0  0  0  0  0  0  0  0
    2.8730    3.8090   17.5370 N   0  0  0  0  0  0  0  0  0  0  0  0
    3.6420    3.8290   18.6030 C   0  0  0  0  0  0  0  0  0  0  0  0
    3.0950    0.6780   18.2700 H   0  0  0  0  0  0  0  0  0  0  0  0
    4.6770    2.1060   20.1320 C   0  0  0  0  0  0  0  0  0  0  0  0
    5.5240    1.5160   19.7660 H   0  0  0  0  0  0  0  0  0  0  0  0
    4.0500    1.4850   20.7760 H   0  0  0  0  0  0  0  0  0  0  0  0
    5.0590    2.9710   20.6810 H   0  0  0  0  0  0  0  0  0  0  0  0
  1  2  1  0  0  0  0
  1 31  1  0  0  0  0
  2  7  1  0  0  0  0
  3  2  2  0  0  0  0
  3 11  1  0  0  0  0
  4  3  1  0  0  0  0
  5  6  1  0  0  0  0
  5  4  2  0  0  0  0
  6  1  2  0  0  0  0
  8  4  1  0  0  0  0
  9  5  1  0  0  0  0
 10  6  1  0  0  0  0
 11 14  1  0  0  0  0
 12 11  1  0  0  0  0
 12 15  1  0  0  0  0
 13 12  2  0  0  0  0
 15 24  2  0  0  0  0
 15 16  1  0  0  0  0
 16 17  2  0  0  0  0
 17 22  1  0  0  0  0
 17 18  1  0  0  0  0
 18 19  2  0  0  0  0
 19 20  1  0  0  0  0
 19 27  1  0  0  0  0
 20 28  1  0  0  0  0
 21 29  1  0  0  0  0
 21 20  2  0  0  0  0
 22 21  1  0  0  0  0
 23 30  1  0  0  0  0
 23 22  2  0  0  0  0
 24 23  1  0  0  0  0
 25 24  1  0  0  0  0
 26 18  1  0  0  0  0
 31 33  1  0  0  0  0
 31 32  1  1  0  0  0
 33 36  1  0  0  0  0
 34 33  1  0  0  0  0
 35 33  1  0  0  0  0
 36 37  2  0  0  0  0
 36 38  1  0  0  0  0
 37 39  1  0  0  0  0
 40 37  1  0  0  0  0
 41 31  1  0  0  0  0
 42 48  1  0  0  0  0
 43 47  1  0  0  0  0
 43 42  1  0  0  0  0
 44 45  1  0  0  0  0
 44 43  2  0  0  0  0
 45 46  2  0  0  0  0
 46 42  1  0  0  0  0
 46 41  1  0  0  0  0
 48 51  1  0  0  0  0
 48 50  1  0  0  0  0
 49 48  1  0  0  0  0
M  END
>  <MODEL>
11

>  <REMARK>
 VINA RESULT:    -7.814      3.993      9.933
 INTER + INTRA:         -11.746
 INTER:                 -11.247
 INTRA:                  -0.498
 UNBOUND:                -0.506
  Name = 
  8 active torsions:
  status: ('A' for Active; 'I' for Inactive)
    1  A    between atoms: C_1  and  N_2
    2  A    between atoms: C_6  and  S_7
    3  A    between atoms: S_7  and  C_8
    4  A    between atoms: C_8  and  C_9
    5  A    between atoms: C_8  and  C_12
    6  A    between atoms: C_9  and  C_10
    7  A    between atoms: C_14  and  N_18
    8  A    between atoms: C_19  and  C_21
                            x       y       z     vdW  Elec       q    Type
                         _______ _______ _______ _____ _____    ______ ____

>  <TORSDO>
F 8

$$$$
=
 OpenBabel07192307433D

 51 54  0  0  1  0  0  0  0  0999 V2000
   -0.0600   10.4990   20.3350 C   0  0  0  0  0  0  0  0  0  0  0  0
    0.7330    9.5220   19.7030 C   0  0  0  0  0  0  0  0  0  0  0  0
    1.3640    8.5070   20.4340 C   0  0  0  0  0  0  0  0  0  0  0  0
    1.2210    8.4820   21.8200 C   0  0  0  0  0  0  0  0  0  0  0  0
    0.4510    9.4540   22.4650 C   0  0  0  0  0  0  0  0  0  0  0  0
   -0.1860   10.4540   21.7300 C   0  0  0  0  0  0  0  0  0  0  0  0
    0.8340    9.5380   18.6200 H   0  0  0  0  0  0  0  0  0  0  0  0
    1.7000    7.7210   22.4290 H   0  0  0  0  0  0  0  0  0  0  0  0
    0.3500    9.4220   23.5480 H   0  0  0  0  0  0  0  0  0  0  0  0
   -0.7830   11.1960   22.2590 H   0  0  0  0  0  0  0  0  0  0  0  0
    2.0990    7.5590   19.7040 N   0  0  0  0  0  0  0  0  0  0  0  0
    2.1360    6.1820   19.8570 C   0  0  0  0  0  0  0  0  0  0  0  0
    1.5290    5.5400   20.7000 O   0  0  0  0  0  0  0  0  0  0  0  0
    2.6430    7.8950   18.9110 H   0  0  0  0  0  0  0  0  0  0  0  0
    3.0120    5.5240   18.8140 C   0  0  0  0  0  0  0  0  0  0  0  0
    4.2140    6.1790   18.6380 N   0  0  0  0  0  0  0  0  0  0  0  0
    5.0740    5.7050   17.7210 C   0  0  0  0  0  0  0  0  0  0  0  0
    6.2850    6.3520   17.5230 C   0  0  0  0  0  0  0  0  0  0  0  0
    7.2090    5.9040   16.5740 C   0  0  0  0  0  0  0  0  0  0  0  0
    6.9220    4.7830   15.8040 C   0  0  0  0  0  0  0  0  0  0  0  0
    5.7130    4.1130   15.9860 C   0  0  0  0  0  0  0  0  0  0  0  0
    4.7850    4.5670   16.9410 C   0  0  0  0  0  0  0  0  0  0  0  0
    3.5590    3.9190   17.1430 C   0  0  0  0  0  0  0  0  0  0  0  0
    2.6490    4.3940   18.0900 C   0  0  0  0  0  0  0  0  0  0  0  0
    1.1690    3.5270   18.2580 Cl  0  0  0  0  0  0  0  0  0  0  0  0
    6.5210    7.2320   18.1170 H   0  0  0  0  0  0  0  0  0  0  0  0
    8.1500    6.4340   16.4390 H   0  0  0  0  0  0  0  0  0  0  0  0
    7.6370    4.4320   15.0640 H   0  0  0  0  0  0  0  0  0  0  0  0
    5.4980    3.2380   15.3750 H   0  0  0  0  0  0  0  0  0  0  0  0
    3.3070    3.0360   16.5540 H   0  0  0  0  0  0  0  0  0  0  0  0
   -0.8040   11.5630   19.5330 C   0  0  1  0  0  0  0  0  0  0  0  0
   -0.1540   11.8830   18.7090 H   0  0  0  0  0  0  0  0  0  0  0  0
   -2.1180   11.0170   18.9240 C   0  0  0  0  0  0  0  0  0  0  0  0
   -2.8960   11.7900   18.9110 H   0  0  0  0  0  0  0  0  0  0  0  0
   -2.5030   10.2160   19.5710 H   0  0  0  0  0  0  0  0  0  0  0  0
   -1.9570   10.4800   17.5250 C   0  0  0  0  0  0  0  0  0  0  0  0
   -2.8830    9.7510   16.8880 C   0  0  0  0  0  0  0  0  0  0  0  0
   -1.0280   10.7130   17.0050 H   0  0  0  0  0  0  0  0  0  0  0  0
   -2.7040    9.3950   15.8770 H   0  0  0  0  0  0  0  0  0  0  0  0
   -3.8280    9.4850   17.3530 H   0  0  0  0  0  0  0  0  0  0  0  0
   -1.1220   13.0170   20.6300 S   0  0  0  0  0  0  0  0  0  0  0  0
   -3.4500   12.5800   21.9960 N   0  0  0  0  0  0  0  0  0  0  0  0
   -4.7840   12.6110   21.7210 C   0  0  0  0  0  0  0  0  0  0  0  0
   -4.9670   12.8610   20.4420 N   0  0  0  0  0  0  0  0  0  0  0  0
   -3.7270   13.0360   19.8720 N   0  0  0  0  0  0  0  0  0  0  0  0
   -2.8290   12.8930   20.8210 C   0  0  0  0  0  0  0  0  0  0  0  0
   -5.5630   12.4490   22.4550 H   0  0  0  0  0  0  0  0  0  0  0  0
   -2.8600   12.3290   23.2830 C   0  0  0  0  0  0  0  0  0  0  0  0
   -2.7570   11.2500   23.4340 H   0  0  0  0  0  0  0  0  0  0  0  0
   -3.5160   12.7450   24.0510 H   0  0  0  0  0  0  0  0  0  0  0  0
   -1.8700   12.7900   23.3300 H   0  0  0  0  0  0  0  0  0  0  0  0
  1  6  1  0  0  0  0
  2  1  2  0  0  0  0
  2  3  1  0  0  0  0
  3  4  2  0  0  0  0
  4  8  1  0  0  0  0
  4  5  1  0  0  0  0
  5  9  1  0  0  0  0
  6 10  1  0  0  0  0
  6  5  2  0  0  0  0
  7  2  1  0  0  0  0
 11 12  1  0  0  0  0
 11  3  1  0  0  0  0
 12 13  2  0  0  0  0
 14 11  1  0  0  0  0
 15 12  1  0  0  0  0
 16 15  1  0  0  0  0
 17 16  2  0  0  0  0
 18 17  1  0  0  0  0
 18 26  1  0  0  0  0
 19 18  2  0  0  0  0
 20 21  2  0  0  0  0
 20 19  1  0  0  0  0
 21 22  1  0  0  0  0
 22 23  2  0  0  0  0
 22 17  1  0  0  0  0
 23 24  1  0  0  0  0
 24 25  1  0  0  0  0
 24 15  2  0  0  0  0
 27 19  1  0  0  0  0
 28 20  1  0  0  0  0
 29 21  1  0  0  0  0
 30 23  1  0  0  0  0
 31 32  1  6  0  0  0
 31  1  1  0  0  0  0
 31 41  1  0  0  0  0
 33 31  1  0  0  0  0
 33 35  1  0  0  0  0
 34 33  1  0  0  0  0
 36 33  1  0  0  0  0
 37 40  1  0  0  0  0
 37 36  2  0  0  0  0
 38 36  1  0  0  0  0
 39 37  1  0  0  0  0
 41 46  1  0  0  0  0
 42 48  1  0  0  0  0
 43 42  1  0  0  0  0
 43 47  1  0  0  0  0
 44 43  2  0  0  0  0
 45 44  1  0  0  0  0
 45 46  2  0  0  0  0
 46 42  1  0  0  0  0
 48 51  1  0  0  0  0
 48 49  1  0  0  0  0
 48 50  1  0  0  0  0
M  END
>  <MODEL>
12

>  <REMARK>
 VINA RESULT:    -7.799      1.626      2.660
 INTER + INTRA:         -11.725
 INTER:                 -11.631
 INTRA:                  -0.094
 UNBOUND:                -0.506
  Name = 
  8 active torsions:
  status: ('A' for Active; 'I' for Inactive)
    1  A    between atoms: C_1  and  N_2
    2  A    between atoms: C_6  and  S_7
    3  A    between atoms: S_7  and  C_8
    4  A    between atoms: C_8  and  C_9
    5  A    between atoms: C_8  and  C_12
    6  A    between atoms: C_9  and  C_10
    7  A    between atoms: C_14  and  N_18
    8  A    between atoms: C_19  and  C_21
                            x       y       z     vdW  Elec       q    Type
                         _______ _______ _______ _____ _____    ______ ____

>  <TORSDO>
F 8

$$$$
=
 OpenBabel07192307433D

 51 54  0  0  1  0  0  0  0  0999 V2000
   -0.2150   11.6450   19.9600 C   0  0  0  0  0  0  0  0  0  0  0  0
    0.3860   10.4100   19.6470 C   0  0  0  0  0  0  0  0  0  0  0  0
    1.4780   10.3290   18.7720 C   0  0  0  0  0  0  0  0  0  0  0  0
    1.9600   11.4950   18.1820 C   0  0  0  0  0  0  0  0  0  0  0  0
    1.3650   12.7270   18.4690 C   0  0  0  0  0  0  0  0  0  0  0  0
    0.2870   12.8030   19.3510 C   0  0  0  0  0  0  0  0  0  0  0  0
    0.0140    9.5030   20.1170 H   0  0  0  0  0  0  0  0  0  0  0  0
    2.7970   11.4800   17.4900 H   0  0  0  0  0  0  0  0  0  0  0  0
    1.7520   13.6290   17.9990 H   0  0  0  0  0  0  0  0  0  0  0  0
   -0.1550   13.7760   19.5590 H   0  0  0  0  0  0  0  0  0  0  0  0
    2.0300    9.0560   18.5580 N   0  0  0  0  0  0  0  0  0  0  0  0
    2.1200    7.9880   19.4360 C   0  0  0  0  0  0  0  0  0  0  0  0
    1.7390    7.9840   20.5970 O   0  0  0  0  0  0  0  0  0  0  0  0
    2.3640    8.8400   17.6200 H   0  0  0  0  0  0  0  0  0  0  0  0
    2.7290    6.7690   18.7800 C   0  0  0  0  0  0  0  0  0  0  0  0
    3.6240    7.0940   17.7810 N   0  0  0  0  0  0  0  0  0  0  0  0
    4.2170    6.0980   17.1040 C   0  0  0  0  0  0  0  0  0  0  0  0
    5.1140    6.4020   16.0890 C   0  0  0  0  0  0  0  0  0  0  0  0
    5.7510    5.4010   15.3490 C   0  0  0  0  0  0  0  0  0  0  0  0
    5.4910    4.0640   15.6260 C   0  0  0  0  0  0  0  0  0  0  0  0
    4.5970    3.7320   16.6430 C   0  0  0  0  0  0  0  0  0  0  0  0
    3.9570    4.7410   17.3840 C   0  0  0  0  0  0  0  0  0  0  0  0
    3.0480    4.4390   18.4080 C   0  0  0  0  0  0  0  0  0  0  0  0
    2.4170    5.4590   19.1250 C   0  0  0  0  0  0  0  0  0  0  0  0
    1.3140    4.9820   20.3600 Cl  0  0  0  0  0  0  0  0  0  0  0  0
    5.3240    7.4440   15.8610 H   0  0  0  0  0  0  0  0  0  0  0  0
    6.4480    5.6710   14.5570 H   0  0  0  0  0  0  0  0  0  0  0  0
    5.9830    3.2830   15.0520 H   0  0  0  0  0  0  0  0  0  0  0  0
    4.3990    2.6820   16.8480 H   0  0  0  0  0  0  0  0  0  0  0  0
    2.8250    3.3990   18.6480 H   0  0  0  0  0  0  0  0  0  0  0  0
   -1.3580   11.7420   20.9650 C   0  0  1  0  0  0  0  0  0  0  0  0
   -2.0170   10.8770   20.8150 H   0  0  0  0  0  0  0  0  0  0  0  0
   -0.8500   11.7090   22.4270 C   0  0  0  0  0  0  0  0  0  0  0  0
   -1.3650   12.4590   23.0390 H   0  0  0  0  0  0  0  0  0  0  0  0
    0.2120   11.9910   22.4390 H   0  0  0  0  0  0  0  0  0  0  0  0
   -1.0050   10.3640   23.0900 C   0  0  0  0  0  0  0  0  0  0  0  0
    0.0090    9.5240   23.3330 C   0  0  0  0  0  0  0  0  0  0  0  0
   -2.0090   10.0720   23.3960 H   0  0  0  0  0  0  0  0  0  0  0  0
   -0.1720    8.5680   23.8170 H   0  0  0  0  0  0  0  0  0  0  0  0
    1.0320    9.7580   23.0520 H   0  0  0  0  0  0  0  0  0  0  0  0
   -2.3200   13.2830   20.6210 S   0  0  0  0  0  0  0  0  0  0  0  0
   -3.1550   14.1790   23.0650 N   0  0  0  0  0  0  0  0  0  0  0  0
   -4.1770   13.9100   23.9260 C   0  0  0  0  0  0  0  0  0  0  0  0
   -4.8980   12.9140   23.4600 N   0  0  0  0  0  0  0  0  0  0  0  0
   -4.3620   12.5450   22.2470 N   0  0  0  0  0  0  0  0  0  0  0  0
   -3.3360   13.3310   22.0110 C   0  0  0  0  0  0  0  0  0  0  0  0
   -4.3510   14.4430   24.8520 H   0  0  0  0  0  0  0  0  0  0  0  0
   -2.1530   15.1950   23.2370 C   0  0  0  0  0  0  0  0  0  0  0  0
   -2.5800   16.0410   23.7850 H   0  0  0  0  0  0  0  0  0  0  0  0
   -1.8230   15.5270   22.2500 H   0  0  0  0  0  0  0  0  0  0  0  0
   -1.3130   14.7900   23.8080 H   0  0  0  0  0  0  0  0  0  0  0  0
  1 31  1  0  0  0  0
  2  1  1  0  0  0  0
  2  7  1  0  0  0  0
  3  2  2  0  0  0  0
  4  5  2  0  0  0  0
  4  3  1  0  0  0  0
  5  6  1  0  0  0  0
  6 10  1  0  0  0  0
  6  1  2  0  0  0  0
  8  4  1  0  0  0  0
  9  5  1  0  0  0  0
 11  3  1  0  0  0  0
 11 12  1  0  0  0  0
 12 13  2  0  0  0  0
 14 11  1  0  0  0  0
 15 24  1  0  0  0  0
 15 12  1  0  0  0  0
 16 15  2  0  0  0  0
 17 22  1  0  0  0  0
 17 16  1  0  0  0  0
 18 17  2  0  0  0  0
 19 20  2  0  0  0  0
 19 18  1  0  0  0  0
 20 21  1  0  0  0  0
 21 29  1  0  0  0  0
 21 22  2  0  0  0  0
 22 23  1  0  0  0  0
 23 30  1  0  0  0  0
 23 24  2  0  0  0  0
 24 25  1  0  0  0  0
 26 18  1  0  0  0  0
 27 19  1  0  0  0  0
 28 20  1  0  0  0  0
 31 32  1  6  0  0  0
 31 33  1  0  0  0  0
 33 35  1  0  0  0  0
 33 34  1  0  0  0  0
 33 36  1  0  0  0  0
 36 37  2  0  0  0  0
 36 38  1  0  0  0  0
 37 39  1  0  0  0  0
 40 37  1  0  0  0  0
 41 31  1  0  0  0  0
 41 46  1  0  0  0  0
 42 48  1  0  0  0  0
 42 43  1  0  0  0  0
 43 47  1  0  0  0  0
 44 43  2  0  0  0  0
 45 44  1  0  0  0  0
 46 45  2  0  0  0  0
 46 42  1  0  0  0  0
 48 49  1  0  0  0  0
 48 51  1  0  0  0  0
 50 48  1  0  0  0  0
M  END
>  <MODEL>
13

>  <REMARK>
 VINA RESULT:    -7.738      2.584      3.927
 INTER + INTRA:         -11.637
 INTER:                 -11.030
 INTRA:                  -0.606
 UNBOUND:                -0.506
  Name = 
  8 active torsions:
  status: ('A' for Active; 'I' for Inactive)
    1  A    between atoms: C_1  and  N_2
    2  A    between atoms: C_6  and  S_7
    3  A    between atoms: S_7  and  C_8
    4  A    between atoms: C_8  and  C_9
    5  A    between atoms: C_8  and  C_12
    6  A    between atoms: C_9  and  C_10
    7  A    between atoms: C_14  and  N_18
    8  A    between atoms: C_19  and  C_21
                            x       y       z     vdW  Elec       q    Type
                         _______ _______ _______ _____ _____    ______ ____

>  <TORSDO>
F 8

$$$$
=
 OpenBabel07192307433D

 51 54  0  0  1  0  0  0  0  0999 V2000
   -0.0520   11.2830   19.6040 C   0  0  0  0  0  0  0  0  0  0  0  0
    0.5570   10.0600   19.2660 C   0  0  0  0  0  0  0  0  0  0  0  0
    1.7620   10.0140   18.5520 C   0  0  0  0  0  0  0  0  0  0  0  0
    2.3540   11.2090   18.1470 C   0  0  0  0  0  0  0  0  0  0  0  0
    1.7550   12.4330   18.4600 C   0  0  0  0  0  0  0  0  0  0  0  0
    0.5620   12.4710   19.1830 C   0  0  0  0  0  0  0  0  0  0  0  0
    0.0980    9.1290   19.5920 H   0  0  0  0  0  0  0  0  0  0  0  0
    3.2820   11.2230   17.5840 H   0  0  0  0  0  0  0  0  0  0  0  0
    2.2280   13.3570   18.1360 H   0  0  0  0  0  0  0  0  0  0  0  0
    0.1190   13.4380   19.4160 H   0  0  0  0  0  0  0  0  0  0  0  0
    2.3070    8.7450   18.3010 N   0  0  0  0  0  0  0  0  0  0  0  0
    2.3740    7.6450   19.1420 C   0  0  0  0  0  0  0  0  0  0  0  0
    1.9760    7.6040   20.2960 O   0  0  0  0  0  0  0  0  0  0  0  0
    2.6540    8.5590   17.3610 H   0  0  0  0  0  0  0  0  0  0  0  0
    2.9850    6.4460   18.4520 C   0  0  0  0  0  0  0  0  0  0  0  0
    3.9600    6.7950   17.5410 N   0  0  0  0  0  0  0  0  0  0  0  0
    4.5640    5.8190   16.8440 C   0  0  0  0  0  0  0  0  0  0  0  0
    5.5420    6.1480   15.9160 C   0  0  0  0  0  0  0  0  0  0  0  0
    6.1930    5.1690   15.1590 C   0  0  0  0  0  0  0  0  0  0  0  0
    5.8650    3.8300   15.3290 C   0  0  0  0  0  0  0  0  0  0  0  0
    4.8880    3.4720   16.2580 C   0  0  0  0  0  0  0  0  0  0  0  0
    4.2340    4.4590   17.0170 C   0  0  0  0  0  0  0  0  0  0  0  0
    3.2430    4.1320   17.9530 C   0  0  0  0  0  0  0  0  0  0  0  0
    2.6000    5.1300   18.6890 C   0  0  0  0  0  0  0  0  0  0  0  0
    1.3950    4.6240   19.8110 Cl  0  0  0  0  0  0  0  0  0  0  0  0
    5.8060    7.1930   15.7700 H   0  0  0  0  0  0  0  0  0  0  0  0
    6.9550    5.4590   14.4360 H   0  0  0  0  0  0  0  0  0  0  0  0
    6.3680    3.0660   14.7420 H   0  0  0  0  0  0  0  0  0  0  0  0
    4.6370    2.4200   16.3810 H   0  0  0  0  0  0  0  0  0  0  0  0
    2.9650    3.0890   18.1100 H   0  0  0  0  0  0  0  0  0  0  0  0
   -1.3260   11.3350   20.4410 C   0  0  1  0  0  0  0  0  0  0  0  0
   -1.7510   10.3230   20.4750 H   0  0  0  0  0  0  0  0  0  0  0  0
   -1.0480   11.7890   21.8940 C   0  0  0  0  0  0  0  0  0  0  0  0
   -1.7870   12.5300   22.2230 H   0  0  0  0  0  0  0  0  0  0  0  0
   -0.0760   12.3010   21.9260 H   0  0  0  0  0  0  0  0  0  0  0  0
   -1.0350   10.6560   22.8880 C   0  0  0  0  0  0  0  0  0  0  0  0
   -0.1760    9.6290   22.8480 C   0  0  0  0  0  0  0  0  0  0  0  0
   -1.7700   10.6900   23.6930 H   0  0  0  0  0  0  0  0  0  0  0  0
   -0.2210    8.8440   23.5980 H   0  0  0  0  0  0  0  0  0  0  0  0
    0.5790    9.5380   22.0710 H   0  0  0  0  0  0  0  0  0  0  0  0
   -2.5380   12.4540   19.6060 S   0  0  0  0  0  0  0  0  0  0  0  0
   -3.9400   10.9180   17.8320 N   0  0  0  0  0  0  0  0  0  0  0  0
   -3.7390   10.4060   16.5850 C   0  0  0  0  0  0  0  0  0  0  0  0
   -2.5210   10.6910   16.1800 N   0  0  0  0  0  0  0  0  0  0  0  0
   -1.9210   11.4410   17.1660 N   0  0  0  0  0  0  0  0  0  0  0  0
   -2.7940   11.5930   18.1360 C   0  0  0  0  0  0  0  0  0  0  0  0
   -4.4800    9.8480   16.0270 H   0  0  0  0  0  0  0  0  0  0  0  0
   -5.1470   10.8040   18.6050 C   0  0  0  0  0  0  0  0  0  0  0  0
   -4.8950   10.5650   19.6430 H   0  0  0  0  0  0  0  0  0  0  0  0
   -5.7560   10.0020   18.1810 H   0  0  0  0  0  0  0  0  0  0  0  0
   -5.6890   11.7540   18.5820 H   0  0  0  0  0  0  0  0  0  0  0  0
  1 31  1  0  0  0  0
  2  7  1  0  0  0  0
  2  1  1  0  0  0  0
  3  2  2  0  0  0  0
  4  5  2  0  0  0  0
  4  3  1  0  0  0  0
  5  6  1  0  0  0  0
  6 10  1  0  0  0  0
  6  1  2  0  0  0  0
  8  4  1  0  0  0  0
  9  5  1  0  0  0  0
 11  3  1  0  0  0  0
 11 12  1  0  0  0  0
 12 13  2  0  0  0  0
 14 11  1  0  0  0  0
 15 24  1  0  0  0  0
 15 12  1  0  0  0  0
 16 15  2  0  0  0  0
 17 22  1  0  0  0  0
 17 16  1  0  0  0  0
 18 17  2  0  0  0  0
 19 20  2  0  0  0  0
 19 18  1  0  0  0  0
 20 21  1  0  0  0  0
 21 29  1  0  0  0  0
 21 22  2  0  0  0  0
 22 23  1  0  0  0  0
 23 30  1  0  0  0  0
 23 24  2  0  0  0  0
 24 25  1  0  0  0  0
 26 18  1  0  0  0  0
 27 19  1  0  0  0  0
 28 20  1  0  0  0  0
 31 32  1  1  0  0  0
 31 33  1  0  0  0  0
 33 35  1  0  0  0  0
 33 34  1  0  0  0  0
 33 36  1  0  0  0  0
 36 38  1  0  0  0  0
 37 36  2  0  0  0  0
 37 39  1  0  0  0  0
 40 37  1  0  0  0  0
 41 31  1  0  0  0  0
 42 46  1  0  0  0  0
 42 48  1  0  0  0  0
 43 42  1  0  0  0  0
 44 43  2  0  0  0  0
 44 45  1  0  0  0  0
 45 46  2  0  0  0  0
 46 41  1  0  0  0  0
 47 43  1  0  0  0  0
 48 49  1  0  0  0  0
 50 48  1  0  0  0  0
 51 48  1  0  0  0  0
M  END
>  <MODEL>
14

>  <REMARK>
 VINA RESULT:    -7.610      1.410      2.624
 INTER + INTRA:         -11.452
 INTER:                 -11.067
 INTRA:                  -0.385
 UNBOUND:                -0.506
  Name = 
  8 active torsions:
  status: ('A' for Active; 'I' for Inactive)
    1  A    between atoms: C_1  and  N_2
    2  A    between atoms: C_6  and  S_7
    3  A    between atoms: S_7  and  C_8
    4  A    between atoms: C_8  and  C_9
    5  A    between atoms: C_8  and  C_12
    6  A    between atoms: C_9  and  C_10
    7  A    between atoms: C_14  and  N_18
    8  A    between atoms: C_19  and  C_21
                            x       y       z     vdW  Elec       q    Type
                         _______ _______ _______ _____ _____    ______ ____

>  <TORSDO>
F 8

$$$$
=
 OpenBabel07192307433D

 51 54  0  0  1  0  0  0  0  0999 V2000
   -0.2860   11.0210   20.6360 C   0  0  0  0  0  0  0  0  0  0  0  0
    0.3620    9.9260   20.0340 C   0  0  0  0  0  0  0  0  0  0  0  0
    0.8940    8.8790   20.8000 C   0  0  0  0  0  0  0  0  0  0  0  0
    0.8000    8.9420   22.1880 C   0  0  0  0  0  0  0  0  0  0  0  0
    0.1750   10.0310   22.8030 C   0  0  0  0  0  0  0  0  0  0  0  0
   -0.3650   11.0630   22.0350 C   0  0  0  0  0  0  0  0  0  0  0  0
    0.4240    9.8740   18.9490 H   0  0  0  0  0  0  0  0  0  0  0  0
    1.2070    8.1600   22.8230 H   0  0  0  0  0  0  0  0  0  0  0  0
    0.1120   10.0660   23.8890 H   0  0  0  0  0  0  0  0  0  0  0  0
   -0.8490   11.8970   22.5400 H   0  0  0  0  0  0  0  0  0  0  0  0
    1.4830    7.8140   20.1010 N   0  0  0  0  0  0  0  0  0  0  0  0
    2.1870    7.8400   18.9070 C   0  0  0  0  0  0  0  0  0  0  0  0
    2.4000    8.8310   18.2260 O   0  0  0  0  0  0  0  0  0  0  0  0
    1.4550    6.8930   20.5360 H   0  0  0  0  0  0  0  0  0  0  0  0
    2.7120    6.4720   18.5340 C   0  0  0  0  0  0  0  0  0  0  0  0
    1.9470    5.4480   19.0540 N   0  0  0  0  0  0  0  0  0  0  0  0
    2.3230    4.1810   18.8130 C   0  0  0  0  0  0  0  0  0  0  0  0
    1.5730    3.1360   19.3320 C   0  0  0  0  0  0  0  0  0  0  0  0
    1.9290    1.8010   19.1170 C   0  0  0  0  0  0  0  0  0  0  0  0
    3.0570    1.4970   18.3650 C   0  0  0  0  0  0  0  0  0  0  0  0
    3.8260    2.5290   17.8280 C   0  0  0  0  0  0  0  0  0  0  0  0
    3.4660    3.8710   18.0470 C   0  0  0  0  0  0  0  0  0  0  0  0
    4.2220    4.9310   17.5270 C   0  0  0  0  0  0  0  0  0  0  0  0
    3.8520    6.2560   17.7660 C   0  0  0  0  0  0  0  0  0  0  0  0
    4.8500    7.4850   17.0850 Cl  0  0  0  0  0  0  0  0  0  0  0  0
    0.6900    3.3590   19.9260 H   0  0  0  0  0  0  0  0  0  0  0  0
    1.3220    1.0020   19.5400 H   0  0  0  0  0  0  0  0  0  0  0  0
    3.3380    0.4600   18.1960 H   0  0  0  0  0  0  0  0  0  0  0  0
    4.7090    2.2790   17.2430 H   0  0  0  0  0  0  0  0  0  0  0  0
    5.1120    4.7230   16.9310 H   0  0  0  0  0  0  0  0  0  0  0  0
   -0.9260   12.1260   19.8010 C   0  0  1  0  0  0  0  0  0  0  0  0
   -1.9320   12.3140   20.1990 H   0  0  0  0  0  0  0  0  0  0  0  0
   -0.1250   13.4480   19.8750 C   0  0  0  0  0  0  0  0  0  0  0  0
   -0.1830   13.8870   20.8790 H   0  0  0  0  0  0  0  0  0  0  0  0
   -0.5880   14.1820   19.2010 H   0  0  0  0  0  0  0  0  0  0  0  0
    1.3280   13.2950   19.5050 C   0  0  0  0  0  0  0  0  0  0  0  0
    1.9180   13.9400   18.4910 C   0  0  0  0  0  0  0  0  0  0  0  0
    1.9300   12.6210   20.1150 H   0  0  0  0  0  0  0  0  0  0  0  0
    2.9730   13.7850   18.2790 H   0  0  0  0  0  0  0  0  0  0  0  0
    1.3730   14.6250   17.8470 H   0  0  0  0  0  0  0  0  0  0  0  0
   -1.0860   11.5320   18.0570 S   0  0  0  0  0  0  0  0  0  0  0  0
   -3.4570   11.2090   16.7350 N   0  0  0  0  0  0  0  0  0  0  0  0
   -4.7830   11.2900   17.0390 C   0  0  0  0  0  0  0  0  0  0  0  0
   -4.9290   11.6880   18.2830 N   0  0  0  0  0  0  0  0  0  0  0  0
   -3.6710   11.8350   18.8230 N   0  0  0  0  0  0  0  0  0  0  0  0
   -2.8000   11.5160   17.8910 C   0  0  0  0  0  0  0  0  0  0  0  0
   -5.5830   11.0610   16.3460 H   0  0  0  0  0  0  0  0  0  0  0  0
   -2.9050   10.8150   15.4670 C   0  0  0  0  0  0  0  0  0  0  0  0
   -1.8920   10.4280   15.6130 H   0  0  0  0  0  0  0  0  0  0  0  0
   -2.8720   11.6930   14.8170 H   0  0  0  0  0  0  0  0  0  0  0  0
   -3.5250   10.0310   15.0240 H   0  0  0  0  0  0  0  0  0  0  0  0
  1  6  1  0  0  0  0
  2  1  2  0  0  0  0
  2  3  1  0  0  0  0
  3  4  2  0  0  0  0
  4  5  1  0  0  0  0
  4  8  1  0  0  0  0
  5  9  1  0  0  0  0
  6 10  1  0  0  0  0
  6  5  2  0  0  0  0
  7  2  1  0  0  0  0
 11 14  1  0  0  0  0
 11  3  1  0  0  0  0
 12 11  1  0  0  0  0
 13 12  2  0  0  0  0
 15 12  1  0  0  0  0
 15 16  1  0  0  0  0
 17 16  2  0  0  0  0
 17 18  1  0  0  0  0
 18 26  1  0  0  0  0
 19 18  2  0  0  0  0
 19 27  1  0  0  0  0
 20 19  1  0  0  0  0
 21 22  1  0  0  0  0
 21 20  2  0  0  0  0
 22 17  1  0  0  0  0
 23 24  1  0  0  0  0
 23 22  2  0  0  0  0
 24 15  2  0  0  0  0
 25 24  1  0  0  0  0
 28 20  1  0  0  0  0
 29 21  1  0  0  0  0
 30 23  1  0  0  0  0
 31 33  1  0  0  0  0
 31 32  1  1  0  0  0
 31  1  1  0  0  0  0
 33 34  1  0  0  0  0
 35 33  1  0  0  0  0
 36 33  1  0  0  0  0
 36 38  1  0  0  0  0
 37 36  2  0  0  0  0
 39 37  1  0  0  0  0
 40 37  1  0  0  0  0
 41 31  1  0  0  0  0
 42 43  1  0  0  0  0
 42 46  1  0  0  0  0
 43 44  2  0  0  0  0
 44 45  1  0  0  0  0
 46 41  1  0  0  0  0
 46 45  2  0  0  0  0
 47 43  1  0  0  0  0
 48 49  1  0  0  0  0
 48 42  1  0  0  0  0
 50 48  1  0  0  0  0
 51 48  1  0  0  0  0
M  END
>  <MODEL>
15

>  <REMARK>
 VINA RESULT:    -7.564      1.838      2.668
 INTER + INTRA:         -11.387
 INTER:                 -10.779
 INTRA:                  -0.608
 UNBOUND:                -0.506
  Name = 
  8 active torsions:
  status: ('A' for Active; 'I' for Inactive)
    1  A    between atoms: C_1  and  N_2
    2  A    between atoms: C_6  and  S_7
    3  A    between atoms: S_7  and  C_8
    4  A    between atoms: C_8  and  C_9
    5  A    between atoms: C_8  and  C_12
    6  A    between atoms: C_9  and  C_10
    7  A    between atoms: C_14  and  N_18
    8  A    between atoms: C_19  and  C_21
                            x       y       z     vdW  Elec       q    Type
                         _______ _______ _______ _____ _____    ______ ____

>  <TORSDO>
F 8

$$$$
=
 OpenBabel07192307433D

 51 54  0  0  1  0  0  0  0  0999 V2000
   -0.2070   11.7630   18.7310 C   0  0  0  0  0  0  0  0  0  0  0  0
    0.4090   10.5080   18.5640 C   0  0  0  0  0  0  0  0  0  0  0  0
    1.7670   10.3990   18.2340 C   0  0  0  0  0  0  0  0  0  0  0  0
    2.5120   11.5600   18.0430 C   0  0  0  0  0  0  0  0  0  0  0  0
    1.9120   12.8140   18.1890 C   0  0  0  0  0  0  0  0  0  0  0  0
    0.5630   12.9160   18.5310 C   0  0  0  0  0  0  0  0  0  0  0  0
   -0.1730    9.6030   18.7240 H   0  0  0  0  0  0  0  0  0  0  0  0
    3.5650   11.5240   17.7760 H   0  0  0  0  0  0  0  0  0  0  0  0
    2.5070   13.7120   18.0350 H   0  0  0  0  0  0  0  0  0  0  0  0
    0.1230   13.9060   18.6420 H   0  0  0  0  0  0  0  0  0  0  0  0
    2.2950    9.1020   18.1300 N   0  0  0  0  0  0  0  0  0  0  0  0
    2.2400    8.0650   19.0470 C   0  0  0  0  0  0  0  0  0  0  0  0
    1.7230    8.1150   20.1520 O   0  0  0  0  0  0  0  0  0  0  0  0
    2.7320    8.8410   17.2470 H   0  0  0  0  0  0  0  0  0  0  0  0
    2.8810    6.8040   18.5100 C   0  0  0  0  0  0  0  0  0  0  0  0
    3.7810    7.0560   17.4950 N   0  0  0  0  0  0  0  0  0  0  0  0
    4.4020    6.0150   16.9170 C   0  0  0  0  0  0  0  0  0  0  0  0
    5.3050    6.2440   15.8880 C   0  0  0  0  0  0  0  0  0  0  0  0
    5.9700    5.1930   15.2480 C   0  0  0  0  0  0  0  0  0  0  0  0
    5.7320    3.8820   15.6420 C   0  0  0  0  0  0  0  0  0  0  0  0
    4.8320    3.6250   16.6750 C   0  0  0  0  0  0  0  0  0  0  0  0
    4.1640    4.6840   17.3160 C   0  0  0  0  0  0  0  0  0  0  0  0
    3.2480    4.4570   18.3530 C   0  0  0  0  0  0  0  0  0  0  0  0
    2.5890    5.5240   18.9680 C   0  0  0  0  0  0  0  0  0  0  0  0
    1.4810    5.1380   20.2300 Cl  0  0  0  0  0  0  0  0  0  0  0  0
    5.4980    7.2650   15.5690 H   0  0  0  0  0  0  0  0  0  0  0  0
    6.6710    5.4050   14.4430 H   0  0  0  0  0  0  0  0  0  0  0  0
    6.2460    3.0620   15.1460 H   0  0  0  0  0  0  0  0  0  0  0  0
    4.6510    2.5930   16.9720 H   0  0  0  0  0  0  0  0  0  0  0  0
    3.0420    3.4380   18.6840 H   0  0  0  0  0  0  0  0  0  0  0  0
   -1.6670   11.8830   19.1590 C   0  0  1  0  0  0  0  0  0  0  0  0
   -2.0390   12.8610   18.8280 H   0  0  0  0  0  0  0  0  0  0  0  0
   -2.5520   10.7900   18.5130 C   0  0  0  0  0  0  0  0  0  0  0  0
   -3.4820   10.6520   19.0770 H   0  0  0  0  0  0  0  0  0  0  0  0
   -2.0240    9.8280   18.5670 H   0  0  0  0  0  0  0  0  0  0  0  0
   -2.9050   11.0710   17.0740 C   0  0  0  0  0  0  0  0  0  0  0  0
   -2.5960   10.2630   16.0520 C   0  0  0  0  0  0  0  0  0  0  0  0
   -3.4540   11.9890   16.8660 H   0  0  0  0  0  0  0  0  0  0  0  0
   -2.8830   10.5260   15.0370 H   0  0  0  0  0  0  0  0  0  0  0  0
   -2.0500    9.3350   16.1950 H   0  0  0  0  0  0  0  0  0  0  0  0
   -1.7510   11.8140   21.0050 S   0  0  0  0  0  0  0  0  0  0  0  0
   -3.7980   12.8480   22.4930 N   0  0  0  0  0  0  0  0  0  0  0  0
   -4.8510   13.6880   22.2860 C   0  0  0  0  0  0  0  0  0  0  0  0
   -4.9060   14.0260   21.0160 N   0  0  0  0  0  0  0  0  0  0  0  0
   -3.8430   13.4260   20.3810 N   0  0  0  0  0  0  0  0  0  0  0  0
   -3.1720   12.7460   21.2840 C   0  0  0  0  0  0  0  0  0  0  0  0
   -5.5330   14.0150   23.0610 H   0  0  0  0  0  0  0  0  0  0  0  0
   -3.4220   12.2610   23.7500 C   0  0  0  0  0  0  0  0  0  0  0  0
   -3.8380   12.8550   24.5700 H   0  0  0  0  0  0  0  0  0  0  0  0
   -2.3320   12.2570   23.8180 H   0  0  0  0  0  0  0  0  0  0  0  0
   -3.8160   11.2430   23.8140 H   0  0  0  0  0  0  0  0  0  0  0  0
  1 31  1  0  0  0  0
  2  7  1  0  0  0  0
  2  1  1  0  0  0  0
  3  2  2  0  0  0  0
  4  5  2  0  0  0  0
  4  3  1  0  0  0  0
  5  6  1  0  0  0  0
  6 10  1  0  0  0  0
  6  1  2  0  0  0  0
  8  4  1  0  0  0  0
  9  5  1  0  0  0  0
 11  3  1  0  0  0  0
 11 12  1  0  0  0  0
 12 13  2  0  0  0  0
 14 11  1  0  0  0  0
 15 24  1  0  0  0  0
 15 12  1  0  0  0  0
 16 15  2  0  0  0  0
 17 22  1  0  0  0  0
 17 16  1  0  0  0  0
 18 17  2  0  0  0  0
 19 20  2  0  0  0  0
 19 18  1  0  0  0  0
 20 21  1  0  0  0  0
 21 29  1  0  0  0  0
 21 22  2  0  0  0  0
 22 23  1  0  0  0  0
 23 30  1  0  0  0  0
 23 24  2  0  0  0  0
 24 25  1  0  0  0  0
 26 18  1  0  0  0  0
 27 19  1  0  0  0  0
 28 20  1  0  0  0  0
 31 32  1  6  0  0  0
 31 41  1  0  0  0  0
 33 35  1  0  0  0  0
 33 34  1  0  0  0  0
 33 31  1  0  0  0  0
 36 33  1  0  0  0  0
 37 40  1  0  0  0  0
 37 36  2  0  0  0  0
 38 36  1  0  0  0  0
 39 37  1  0  0  0  0
 41 46  1  0  0  0  0
 42 48  1  0  0  0  0
 43 42  1  0  0  0  0
 43 47  1  0  0  0  0
 44 43  2  0  0  0  0
 45 44  1  0  0  0  0
 45 46  2  0  0  0  0
 46 42  1  0  0  0  0
 48 51  1  0  0  0  0
 48 50  1  0  0  0  0
 48 49  1  0  0  0  0
M  END
>  <MODEL>
16

>  <REMARK>
 VINA RESULT:    -7.550      2.213      3.590
 INTER + INTRA:         -11.366
 INTER:                 -10.685
 INTRA:                  -0.681
 UNBOUND:                -0.506
  Name = 
  8 active torsions:
  status: ('A' for Active; 'I' for Inactive)
    1  A    between atoms: C_1  and  N_2
    2  A    between atoms: C_6  and  S_7
    3  A    between atoms: S_7  and  C_8
    4  A    between atoms: C_8  and  C_9
    5  A    between atoms: C_8  and  C_12
    6  A    between atoms: C_9  and  C_10
    7  A    between atoms: C_14  and  N_18
    8  A    between atoms: C_19  and  C_21
                            x       y       z     vdW  Elec       q    Type
                         _______ _______ _______ _____ _____    ______ ____

>  <TORSDO>
F 8

$$$$
=
 OpenBabel07192307433D

 51 54  0  0  1  0  0  0  0  0999 V2000
   -0.0530   12.2950   19.0700 C   0  0  0  0  0  0  0  0  0  0  0  0
    0.7300   11.1270   18.9990 C   0  0  0  0  0  0  0  0  0  0  0  0
    0.2850    9.9880   18.3130 C   0  0  0  0  0  0  0  0  0  0  0  0
   -0.9710   10.0090   17.7130 C   0  0  0  0  0  0  0  0  0  0  0  0
   -1.7690   11.1540   17.7870 C   0  0  0  0  0  0  0  0  0  0  0  0
   -1.3150   12.2890   18.4590 C   0  0  0  0  0  0  0  0  0  0  0  0
    1.7150   11.1180   19.4600 H   0  0  0  0  0  0  0  0  0  0  0  0
   -1.3620    9.1470   17.1800 H   0  0  0  0  0  0  0  0  0  0  0  0
   -2.7490   11.1540   17.3140 H   0  0  0  0  0  0  0  0  0  0  0  0
   -1.9560   13.1680   18.4990 H   0  0  0  0  0  0  0  0  0  0  0  0
    1.1590    8.8900   18.2670 N   0  0  0  0  0  0  0  0  0  0  0  0
    1.7660    8.2170   19.3160 C   0  0  0  0  0  0  0  0  0  0  0  0
    1.6540    8.4920   20.5000 O   0  0  0  0  0  0  0  0  0  0  0  0
    1.3450    8.4750   17.3560 H   0  0  0  0  0  0  0  0  0  0  0  0
    2.5850    7.0430   18.8300 C   0  0  0  0  0  0  0  0  0  0  0  0
    3.3920    7.3630   17.7570 N   0  0  0  0  0  0  0  0  0  0  0  0
    4.1540    6.3970   17.2180 C   0  0  0  0  0  0  0  0  0  0  0  0
    4.9670    6.6950   16.1340 C   0  0  0  0  0  0  0  0  0  0  0  0
    5.7710    5.7230   15.5310 C   0  0  0  0  0  0  0  0  0  0  0  0
    5.7690    4.4220   16.0210 C   0  0  0  0  0  0  0  0  0  0  0  0
    4.9640    4.0980   17.1120 C   0  0  0  0  0  0  0  0  0  0  0  0
    4.1550    5.0780   17.7150 C   0  0  0  0  0  0  0  0  0  0  0  0
    3.3300    4.7810   18.8090 C   0  0  0  0  0  0  0  0  0  0  0  0
    2.5270    5.7680   19.3850 C   0  0  0  0  0  0  0  0  0  0  0  0
    1.5480    5.3000   20.7230 Cl  0  0  0  0  0  0  0  0  0  0  0  0
    4.9750    7.7080   15.7390 H   0  0  0  0  0  0  0  0  0  0  0  0
    6.3960    5.9860   14.6800 H   0  0  0  0  0  0  0  0  0  0  0  0
    6.3920    3.6630   15.5550 H   0  0  0  0  0  0  0  0  0  0  0  0
    4.9680    3.0750   17.4840 H   0  0  0  0  0  0  0  0  0  0  0  0
    3.3080    3.7690   19.2150 H   0  0  0  0  0  0  0  0  0  0  0  0
    0.4590   13.5580   19.7560 C   0  0  1  0  0  0  0  0  0  0  0  0
    0.5820   14.3340   18.9900 H   0  0  0  0  0  0  0  0  0  0  0  0
   -0.5350   14.0850   20.8180 C   0  0  0  0  0  0  0  0  0  0  0  0
   -1.5450   14.1780   20.4000 H   0  0  0  0  0  0  0  0  0  0  0  0
   -0.2370   15.1010   21.1100 H   0  0  0  0  0  0  0  0  0  0  0  0
   -0.6090   13.2250   22.0540 C   0  0  0  0  0  0  0  0  0  0  0  0
   -1.7260   12.6290   22.4910 C   0  0  0  0  0  0  0  0  0  0  0  0
    0.3140   13.0790   22.6160 H   0  0  0  0  0  0  0  0  0  0  0  0
   -1.7090   12.0200   23.3910 H   0  0  0  0  0  0  0  0  0  0  0  0
   -2.6770   12.7370   21.9750 H   0  0  0  0  0  0  0  0  0  0  0  0
    2.1130   13.1980   20.5000 S   0  0  0  0  0  0  0  0  0  0  0  0
    4.2560   14.7460   19.8040 N   0  0  0  0  0  0  0  0  0  0  0  0
    4.7750   15.2670   18.6570 C   0  0  0  0  0  0  0  0  0  0  0  0
    3.9830   14.9860   17.6450 N   0  0  0  0  0  0  0  0  0  0  0  0
    2.9410   14.2300   18.1310 N   0  0  0  0  0  0  0  0  0  0  0  0
    3.1340   14.0700   19.4210 C   0  0  0  0  0  0  0  0  0  0  0  0
    5.6990   15.8290   18.6040 H   0  0  0  0  0  0  0  0  0  0  0  0
    4.8350   14.8530   21.1160 C   0  0  0  0  0  0  0  0  0  0  0  0
    4.8300   13.8720   21.6000 H   0  0  0  0  0  0  0  0  0  0  0  0
    4.2370   15.5550   21.7020 H   0  0  0  0  0  0  0  0  0  0  0  0
    5.8690   15.2020   21.0340 H   0  0  0  0  0  0  0  0  0  0  0  0
  1 31  1  0  0  0  0
  2  1  1  0  0  0  0
  2  7  1  0  0  0  0
  3  2  2  0  0  0  0
  4  5  2  0  0  0  0
  4  3  1  0  0  0  0
  5  6  1  0  0  0  0
  6 10  1  0  0  0  0
  6  1  2  0  0  0  0
  8  4  1  0  0  0  0
  9  5  1  0  0  0  0
 11  3  1  0  0  0  0
 11 12  1  0  0  0  0
 12 13  2  0  0  0  0
 14 11  1  0  0  0  0
 15 12  1  0  0  0  0
 15 24  1  0  0  0  0
 16 15  2  0  0  0  0
 17 22  1  0  0  0  0
 17 16  1  0  0  0  0
 18 17  2  0  0  0  0
 19 20  2  0  0  0  0
 19 18  1  0  0  0  0
 20 21  1  0  0  0  0
 21 29  1  0  0  0  0
 21 22  2  0  0  0  0
 22 23  1  0  0  0  0
 23 30  1  0  0  0  0
 23 24  2  0  0  0  0
 24 25  1  0  0  0  0
 26 18  1  0  0  0  0
 27 19  1  0  0  0  0
 28 20  1  0  0  0  0
 31 32  1  6  0  0  0
 31 41  1  0  0  0  0
 31 33  1  0  0  0  0
 33 35  1  0  0  0  0
 33 36  1  0  0  0  0
 34 33  1  0  0  0  0
 36 37  2  0  0  0  0
 36 38  1  0  0  0  0
 37 39  1  0  0  0  0
 40 37  1  0  0  0  0
 42 48  1  0  0  0  0
 43 42  1  0  0  0  0
 44 45  1  0  0  0  0
 44 43  2  0  0  0  0
 45 46  2  0  0  0  0
 46 42  1  0  0  0  0
 46 41  1  0  0  0  0
 47 43  1  0  0  0  0
 48 49  1  0  0  0  0
 48 50  1  0  0  0  0
 51 48  1  0  0  0  0
M  END
>  <MODEL>
17

>  <REMARK>
 VINA RESULT:    -7.481      3.149      4.827
 INTER + INTRA:         -11.267
 INTER:                 -10.181
 INTRA:                  -1.086
 UNBOUND:                -0.506
  Name = 
  8 active torsions:
  status: ('A' for Active; 'I' for Inactive)
    1  A    between atoms: C_1  and  N_2
    2  A    between atoms: C_6  and  S_7
    3  A    between atoms: S_7  and  C_8
    4  A    between atoms: C_8  and  C_9
    5  A    between atoms: C_8  and  C_12
    6  A    between atoms: C_9  and  C_10
    7  A    between atoms: C_14  and  N_18
    8  A    between atoms: C_19  and  C_21
                            x       y       z     vdW  Elec       q    Type
                         _______ _______ _______ _____ _____    ______ ____

>  <TORSDO>
F 8

$$$$
=
 OpenBabel07192307433D

 51 54  0  0  1  0  0  0  0  0999 V2000
   -0.2900   11.0330   19.9200 C   0  0  0  0  0  0  0  0  0  0  0  0
    0.3910    9.9010   19.4330 C   0  0  0  0  0  0  0  0  0  0  0  0
    0.9670    8.9640   20.3010 C   0  0  0  0  0  0  0  0  0  0  0  0
    0.8860    9.1760   21.6750 C   0  0  0  0  0  0  0  0  0  0  0  0
    0.2280   10.3030   22.1760 C   0  0  0  0  0  0  0  0  0  0  0  0
   -0.3560   11.2250   21.3070 C   0  0  0  0  0  0  0  0  0  0  0  0
    0.4440    9.7330   18.3590 H   0  0  0  0  0  0  0  0  0  0  0  0
    1.3260    8.4830   22.3850 H   0  0  0  0  0  0  0  0  0  0  0  0
    0.1740   10.4550   23.2520 H   0  0  0  0  0  0  0  0  0  0  0  0
   -0.8650   12.0920   21.7250 H   0  0  0  0  0  0  0  0  0  0  0  0
    1.5880    7.8500   19.7140 N   0  0  0  0  0  0  0  0  0  0  0  0
    2.3840    7.7940   18.5810 C   0  0  0  0  0  0  0  0  0  0  0  0
    2.6720    8.7390   17.8640 O   0  0  0  0  0  0  0  0  0  0  0  0
    1.5060    6.9570   20.1980 H   0  0  0  0  0  0  0  0  0  0  0  0
    2.9090    6.3970   18.3310 C   0  0  0  0  0  0  0  0  0  0  0  0
    2.0830    5.4180   18.8450 N   0  0  0  0  0  0  0  0  0  0  0  0
    2.4500    4.1340   18.7080 C   0  0  0  0  0  0  0  0  0  0  0  0
    1.6380    3.1340   19.2230 C   0  0  0  0  0  0  0  0  0  0  0  0
    1.9810    1.7820   19.1150 C   0  0  0  0  0  0  0  0  0  0  0  0
    3.1600    1.4160   18.4760 C   0  0  0  0  0  0  0  0  0  0  0  0
    3.9910    2.4020   17.9460 C   0  0  0  0  0  0  0  0  0  0  0  0
    3.6440    3.7610   18.0580 C   0  0  0  0  0  0  0  0  0  0  0  0
    4.4620    4.7750   17.5420 C   0  0  0  0  0  0  0  0  0  0  0  0
    4.1020    6.1180   17.6730 C   0  0  0  0  0  0  0  0  0  0  0  0
    5.1780    7.2870   17.0070 Cl  0  0  0  0  0  0  0  0  0  0  0  0
    0.7150    3.4060   19.7280 H   0  0  0  0  0  0  0  0  0  0  0  0
    1.3250    1.0200   19.5320 H   0  0  0  0  0  0  0  0  0  0  0  0
    3.4310    0.3670   18.3910 H   0  0  0  0  0  0  0  0  0  0  0  0
    4.9130    2.1040   17.4510 H   0  0  0  0  0  0  0  0  0  0  0  0
    5.3930    4.5180   17.0340 H   0  0  0  0  0  0  0  0  0  0  0  0
   -0.9780   12.0170   18.9780 C   0  0  1  0  0  0  0  0  0  0  0  0
   -0.5540   11.8790   17.9750 H   0  0  0  0  0  0  0  0  0  0  0  0
   -2.5030   11.7670   18.8920 C   0  0  0  0  0  0  0  0  0  0  0  0
   -3.0640   12.6950   19.0590 H   0  0  0  0  0  0  0  0  0  0  0  0
   -2.7980   11.0890   19.7050 H   0  0  0  0  0  0  0  0  0  0  0  0
   -2.9450   11.1740   17.5780 C   0  0  0  0  0  0  0  0  0  0  0  0
   -2.3680   10.1120   17.0000 C   0  0  0  0  0  0  0  0  0  0  0  0
   -3.7940   11.6420   17.0800 H   0  0  0  0  0  0  0  0  0  0  0  0
   -2.7380    9.7340   16.0510 H   0  0  0  0  0  0  0  0  0  0  0  0
   -1.5190    9.6020   17.4470 H   0  0  0  0  0  0  0  0  0  0  0  0
   -0.6080   13.7370   19.5440 S   0  0  0  0  0  0  0  0  0  0  0  0
    2.0090   14.2530   20.1410 N   0  0  0  0  0  0  0  0  0  0  0  0
    3.2160   14.1180   19.5210 C   0  0  0  0  0  0  0  0  0  0  0  0
    3.0360   13.6790   18.2940 N   0  0  0  0  0  0  0  0  0  0  0  0
    1.6850   13.4840   18.1160 N   0  0  0  0  0  0  0  0  0  0  0  0
    1.0860   13.8050   19.2410 C   0  0  0  0  0  0  0  0  0  0  0  0
    4.1680   14.3460   19.9810 H   0  0  0  0  0  0  0  0  0  0  0  0
    1.8010   14.7140   21.4870 C   0  0  0  0  0  0  0  0  0  0  0  0
    2.7410   14.6550   22.0440 H   0  0  0  0  0  0  0  0  0  0  0  0
    1.0530   14.0740   21.9600 H   0  0  0  0  0  0  0  0  0  0  0  0
    1.4630   15.7540   21.4700 H   0  0  0  0  0  0  0  0  0  0  0  0
  1  6  1  0  0  0  0
  2  1  2  0  0  0  0
  2  3  1  0  0  0  0
  3  4  2  0  0  0  0
  4  5  1  0  0  0  0
  4  8  1  0  0  0  0
  5  9  1  0  0  0  0
  6 10  1  0  0  0  0
  6  5  2  0  0  0  0
  7  2  1  0  0  0  0
 11 14  1  0  0  0  0
 11  3  1  0  0  0  0
 12 11  1  0  0  0  0
 13 12  2  0  0  0  0
 15 12  1  0  0  0  0
 15 16  1  0  0  0  0
 17 16  2  0  0  0  0
 17 18  1  0  0  0  0
 18 26  1  0  0  0  0
 19 18  2  0  0  0  0
 19 27  1  0  0  0  0
 20 19  1  0  0  0  0
 21 22  1  0  0  0  0
 21 20  2  0  0  0  0
 22 17  1  0  0  0  0
 23 24  1  0  0  0  0
 23 22  2  0  0  0  0
 24 15  2  0  0  0  0
 25 24  1  0  0  0  0
 28 20  1  0  0  0  0
 29 21  1  0  0  0  0
 30 23  1  0  0  0  0
 31 32  1  6  0  0  0
 31 41  1  0  0  0  0
 31  1  1  0  0  0  0
 33 31  1  0  0  0  0
 33 34  1  0  0  0  0
 33 35  1  0  0  0  0
 36 33  1  0  0  0  0
 37 40  1  0  0  0  0
 37 36  2  0  0  0  0
 38 36  1  0  0  0  0
 39 37  1  0  0  0  0
 42 48  1  0  0  0  0
 43 47  1  0  0  0  0
 43 42  1  0  0  0  0
 44 43  2  0  0  0  0
 45 44  1  0  0  0  0
 45 46  2  0  0  0  0
 46 41  1  0  0  0  0
 46 42  1  0  0  0  0
 48 50  1  0  0  0  0
 48 49  1  0  0  0  0
 51 48  1  0  0  0  0
M  END
>  <MODEL>
18

>  <REMARK>
 VINA RESULT:    -7.451      2.811      4.471
 INTER + INTRA:         -11.224
 INTER:                 -10.479
 INTRA:                  -0.745
 UNBOUND:                -0.506
  Name = 
  8 active torsions:
  status: ('A' for Active; 'I' for Inactive)
    1  A    between atoms: C_1  and  N_2
    2  A    between atoms: C_6  and  S_7
    3  A    between atoms: S_7  and  C_8
    4  A    between atoms: C_8  and  C_9
    5  A    between atoms: C_8  and  C_12
    6  A    between atoms: C_9  and  C_10
    7  A    between atoms: C_14  and  N_18
    8  A    between atoms: C_19  and  C_21
                            x       y       z     vdW  Elec       q    Type
                         _______ _______ _______ _____ _____    ______ ____

>  <TORSDO>
F 8

$$$$
=
 OpenBabel07192307433D

 51 54  0  0  1  0  0  0  0  0999 V2000
    0.0620   12.2940   19.0470 C   0  0  0  0  0  0  0  0  0  0  0  0
    0.8280   11.1140   18.9840 C   0  0  0  0  0  0  0  0  0  0  0  0
    0.3650    9.9770   18.3090 C   0  0  0  0  0  0  0  0  0  0  0  0
   -0.8930   10.0100   17.7110 C   0  0  0  0  0  0  0  0  0  0  0  0
   -1.6740   11.1680   17.7780 C   0  0  0  0  0  0  0  0  0  0  0  0
   -1.2010   12.3020   18.4400 C   0  0  0  0  0  0  0  0  0  0  0  0
    1.8140   11.0940   19.4430 H   0  0  0  0  0  0  0  0  0  0  0  0
   -1.2980    9.1500   17.1860 H   0  0  0  0  0  0  0  0  0  0  0  0
   -2.6540   11.1790   17.3080 H   0  0  0  0  0  0  0  0  0  0  0  0
   -1.8280   13.1910   18.4730 H   0  0  0  0  0  0  0  0  0  0  0  0
    1.2220    8.8650   18.2700 N   0  0  0  0  0  0  0  0  0  0  0  0
    1.7520    8.1380   19.3240 C   0  0  0  0  0  0  0  0  0  0  0  0
    1.5710    8.3650   20.5100 O   0  0  0  0  0  0  0  0  0  0  0  0
    1.4580    8.4850   17.3540 H   0  0  0  0  0  0  0  0  0  0  0  0
    2.5810    6.9690   18.8400 C   0  0  0  0  0  0  0  0  0  0  0  0
    3.3970    7.2990   17.7770 N   0  0  0  0  0  0  0  0  0  0  0  0
    4.1680    6.3400   17.2400 C   0  0  0  0  0  0  0  0  0  0  0  0
    4.9900    6.6480   16.1650 C   0  0  0  0  0  0  0  0  0  0  0  0
    5.8050    5.6820   15.5650 C   0  0  0  0  0  0  0  0  0  0  0  0
    5.8030    4.3790   16.0470 C   0  0  0  0  0  0  0  0  0  0  0  0
    4.9890    4.0440   17.1290 C   0  0  0  0  0  0  0  0  0  0  0  0
    4.1700    5.0180   17.7290 C   0  0  0  0  0  0  0  0  0  0  0  0
    3.3350    4.7110   18.8120 C   0  0  0  0  0  0  0  0  0  0  0  0
    2.5230    5.6920   19.3860 C   0  0  0  0  0  0  0  0  0  0  0  0
    1.5320    5.2110   20.7120 Cl  0  0  0  0  0  0  0  0  0  0  0  0
    4.9990    7.6630   15.7760 H   0  0  0  0  0  0  0  0  0  0  0  0
    6.4370    5.9530   14.7210 H   0  0  0  0  0  0  0  0  0  0  0  0
    6.4340    3.6250   15.5830 H   0  0  0  0  0  0  0  0  0  0  0  0
    4.9940    3.0200   17.4950 H   0  0  0  0  0  0  0  0  0  0  0  0
    3.3140    3.6970   19.2130 H   0  0  0  0  0  0  0  0  0  0  0  0
    0.5950   13.5550   19.7210 C   0  0  1  0  0  0  0  0  0  0  0  0
    1.2210   13.2480   20.5700 H   0  0  0  0  0  0  0  0  0  0  0  0
    1.4680   14.4000   18.7630 C   0  0  0  0  0  0  0  0  0  0  0  0
    1.1440   15.4480   18.7560 H   0  0  0  0  0  0  0  0  0  0  0  0
    1.3240   14.0350   17.7370 H   0  0  0  0  0  0  0  0  0  0  0  0
    2.9390   14.3600   19.0920 C   0  0  0  0  0  0  0  0  0  0  0  0
    3.9160   14.4870   18.1850 C   0  0  0  0  0  0  0  0  0  0  0  0
    3.2130   14.2270   20.1390 H   0  0  0  0  0  0  0  0  0  0  0  0
    4.9590   14.4500   18.4910 H   0  0  0  0  0  0  0  0  0  0  0  0
    3.7080   14.6220   17.1270 H   0  0  0  0  0  0  0  0  0  0  0  0
   -0.8360   14.5310   20.3670 S   0  0  0  0  0  0  0  0  0  0  0  0
   -2.6980   13.0690   21.7350 N   0  0  0  0  0  0  0  0  0  0  0  0
   -2.7090   12.2290   22.8080 C   0  0  0  0  0  0  0  0  0  0  0  0
   -1.5080   12.1750   23.3410 N   0  0  0  0  0  0  0  0  0  0  0  0
   -0.6790   12.9670   22.5780 N   0  0  0  0  0  0  0  0  0  0  0  0
   -1.4000   13.4720   21.6030 C   0  0  0  0  0  0  0  0  0  0  0  0
   -3.5840   11.6980   23.1590 H   0  0  0  0  0  0  0  0  0  0  0  0
   -3.8250   13.3880   20.9020 C   0  0  0  0  0  0  0  0  0  0  0  0
   -4.4990   14.0620   21.4400 H   0  0  0  0  0  0  0  0  0  0  0  0
   -4.3510   12.4600   20.6610 H   0  0  0  0  0  0  0  0  0  0  0  0
   -3.4800   13.8830   19.9900 H   0  0  0  0  0  0  0  0  0  0  0  0
  1 31  1  0  0  0  0
  2  1  1  0  0  0  0
  2  7  1  0  0  0  0
  3  2  2  0  0  0  0
  4  5  2  0  0  0  0
  4  3  1  0  0  0  0
  5  6  1  0  0  0  0
  6 10  1  0  0  0  0
  6  1  2  0  0  0  0
  8  4  1  0  0  0  0
  9  5  1  0  0  0  0
 11  3  1  0  0  0  0
 11 12  1  0  0  0  0
 12 13  2  0  0  0  0
 14 11  1  0  0  0  0
 15 12  1  0  0  0  0
 15 24  1  0  0  0  0
 16 15  2  0  0  0  0
 17 22  1  0  0  0  0
 17 16  1  0  0  0  0
 18 17  2  0  0  0  0
 19 20  2  0  0  0  0
 19 18  1  0  0  0  0
 20 21  1  0  0  0  0
 21 29  1  0  0  0  0
 21 22  2  0  0  0  0
 22 23  1  0  0  0  0
 23 30  1  0  0  0  0
 23 24  2  0  0  0  0
 24 25  1  0  0  0  0
 26 18  1  0  0  0  0
 27 19  1  0  0  0  0
 28 20  1  0  0  0  0
 31 41  1  0  0  0  0
 31 32  1  1  0  0  0
 33 36  1  0  0  0  0
 33 31  1  0  0  0  0
 34 33  1  0  0  0  0
 35 33  1  0  0  0  0
 36 38  1  0  0  0  0
 37 39  1  0  0  0  0
 37 36  2  0  0  0  0
 40 37  1  0  0  0  0
 41 46  1  0  0  0  0
 42 43  1  0  0  0  0
 43 47  1  0  0  0  0
 43 44  2  0  0  0  0
 45 44  1  0  0  0  0
 46 42  1  0  0  0  0
 46 45  2  0  0  0  0
 48 49  1  0  0  0  0
 48 42  1  0  0  0  0
 50 48  1  0  0  0  0
 51 48  1  0  0  0  0
M  END
>  <MODEL>
19

>  <REMARK>
 VINA RESULT:    -7.443      2.486      3.594
 INTER + INTRA:         -11.212
 INTER:                 -10.393
 INTRA:                  -0.819
 UNBOUND:                -0.506
  Name = 
  8 active torsions:
  status: ('A' for Active; 'I' for Inactive)
    1  A    between atoms: C_1  and  N_2
    2  A    between atoms: C_6  and  S_7
    3  A    between atoms: S_7  and  C_8
    4  A    between atoms: C_8  and  C_9
    5  A    between atoms: C_8  and  C_12
    6  A    between atoms: C_9  and  C_10
    7  A    between atoms: C_14  and  N_18
    8  A    between atoms: C_19  and  C_21
                            x       y       z     vdW  Elec       q    Type
                         _______ _______ _______ _____ _____    ______ ____

>  <TORSDO>
F 8

$$$$
=
 OpenBabel07192307433D

 51 54  0  0  1  0  0  0  0  0999 V2000
    4.5470    5.8110   17.6000 C   0  0  0  0  0  0  0  0  0  0  0  0
    3.4910    6.7400   17.6630 C   0  0  0  0  0  0  0  0  0  0  0  0
    2.6170    6.7810   18.7580 C   0  0  0  0  0  0  0  0  0  0  0  0
    2.7860    5.8640   19.7930 C   0  0  0  0  0  0  0  0  0  0  0  0
    3.8190    4.9240   19.7390 C   0  0  0  0  0  0  0  0  0  0  0  0
    4.6940    4.8970   18.6520 C   0  0  0  0  0  0  0  0  0  0  0  0
    3.3680    7.4620   16.8590 H   0  0  0  0  0  0  0  0  0  0  0  0
    2.1270    5.8510   20.6560 H   0  0  0  0  0  0  0  0  0  0  0  0
    3.9370    4.2130   20.5540 H   0  0  0  0  0  0  0  0  0  0  0  0
    5.4920    4.1560   18.6380 H   0  0  0  0  0  0  0  0  0  0  0  0
    1.6220    7.7720   18.7430 N   0  0  0  0  0  0  0  0  0  0  0  0
    1.7290    9.1060   18.3840 C   0  0  0  0  0  0  0  0  0  0  0  0
    2.7520    9.6700   18.0280 O   0  0  0  0  0  0  0  0  0  0  0  0
    0.6700    7.4860   18.9650 H   0  0  0  0  0  0  0  0  0  0  0  0
    0.3940    9.8140   18.4460 C   0  0  0  0  0  0  0  0  0  0  0  0
   -0.4270    9.4980   17.3820 N   0  0  0  0  0  0  0  0  0  0  0  0
   -1.6350   10.0810   17.3100 C   0  0  0  0  0  0  0  0  0  0  0  0
   -2.4730    9.7830   16.2450 C   0  0  0  0  0  0  0  0  0  0  0  0
   -3.7350   10.3710   16.1200 C   0  0  0  0  0  0  0  0  0  0  0  0
   -4.1770   11.2750   17.0790 C   0  0  0  0  0  0  0  0  0  0  0  0
   -3.3550   11.5870   18.1610 C   0  0  0  0  0  0  0  0  0  0  0  0
   -2.0850   10.9960   18.2830 C   0  0  0  0  0  0  0  0  0  0  0  0
   -1.2340   11.2950   19.3560 C   0  0  0  0  0  0  0  0  0  0  0  0
    0.0280   10.7030   19.4510 C   0  0  0  0  0  0  0  0  0  0  0  0
    0.9990   11.1400   20.8060 Cl  0  0  0  0  0  0  0  0  0  0  0  0
   -2.1380    9.0810   15.4860 H   0  0  0  0  0  0  0  0  0  0  0  0
   -4.3700   10.1200   15.2710 H   0  0  0  0  0  0  0  0  0  0  0  0
   -5.1580   11.7340   16.9850 H   0  0  0  0  0  0  0  0  0  0  0  0
   -3.7100   12.2990   18.9040 H   0  0  0  0  0  0  0  0  0  0  0  0
   -1.5530   12.0000   20.1250 H   0  0  0  0  0  0  0  0  0  0  0  0
    5.5400    5.8110   16.4420 C   0  0  1  0  0  0  0  0  0  0  0  0
    5.2240    6.5800   15.7240 H   0  0  0  0  0  0  0  0  0  0  0  0
    6.9760    6.1510   16.9090 C   0  0  0  0  0  0  0  0  0  0  0  0
    7.7140    5.8700   16.1480 H   0  0  0  0  0  0  0  0  0  0  0  0
    7.2130    5.5460   17.7940 H   0  0  0  0  0  0  0  0  0  0  0  0
    7.1720    7.6070   17.2470 C   0  0  0  0  0  0  0  0  0  0  0  0
    8.1170    8.0660   18.0770 C   0  0  0  0  0  0  0  0  0  0  0  0
    6.5010    8.3240   16.7730 H   0  0  0  0  0  0  0  0  0  0  0  0
    8.2050    9.1310   18.2760 H   0  0  0  0  0  0  0  0  0  0  0  0
    8.8150    7.4020   18.5800 H   0  0  0  0  0  0  0  0  0  0  0  0
    5.4760    4.1630   15.6060 S   0  0  0  0  0  0  0  0  0  0  0  0
    6.2130    3.9900   12.9790 N   0  0  0  0  0  0  0  0  0  0  0  0
    7.2090    4.4870   12.1920 C   0  0  0  0  0  0  0  0  0  0  0  0
    8.0540    5.1750   12.9280 N   0  0  0  0  0  0  0  0  0  0  0  0
    7.5830    5.1640   14.2220 N   0  0  0  0  0  0  0  0  0  0  0  0
    6.4640    4.4740   14.2300 C   0  0  0  0  0  0  0  0  0  0  0  0
    7.2810    4.3250   11.1240 H   0  0  0  0  0  0  0  0  0  0  0  0
    5.1100    3.1820   12.5340 C   0  0  0  0  0  0  0  0  0  0  0  0
    4.3820    3.0790   13.3440 H   0  0  0  0  0  0  0  0  0  0  0  0
    5.4930    2.1970   12.2570 H   0  0  0  0  0  0  0  0  0  0  0  0
    4.6250    3.6620   11.6800 H   0  0  0  0  0  0  0  0  0  0  0  0
  1  2  2  0  0  0  0
  1  6  1  0  0  0  0
  2  3  1  0  0  0  0
  3  4  2  0  0  0  0
  4  8  1  0  0  0  0
  5  4  1  0  0  0  0
  5  9  1  0  0  0  0
  6  5  2  0  0  0  0
  7  2  1  0  0  0  0
 10  6  1  0  0  0  0
 11  3  1  0  0  0  0
 11 14  1  0  0  0  0
 12 15  1  0  0  0  0
 12 11  1  0  0  0  0
 13 12  2  0  0  0  0
 15 24  1  0  0  0  0
 16 15  2  0  0  0  0
 17 16  1  0  0  0  0
 17 22  1  0  0  0  0
 18 17  2  0  0  0  0
 19 18  1  0  0  0  0
 19 20  2  0  0  0  0
 20 21  1  0  0  0  0
 21 22  2  0  0  0  0
 21 29  1  0  0  0  0
 22 23  1  0  0  0  0
 23 24  2  0  0  0  0
 23 30  1  0  0  0  0
 24 25  1  0  0  0  0
 26 18  1  0  0  0  0
 27 19  1  0  0  0  0
 28 20  1  0  0  0  0
 31 32  1  6  0  0  0
 31 33  1  0  0  0  0
 31  1  1  0  0  0  0
 33 36  1  0  0  0  0
 33 35  1  0  0  0  0
 34 33  1  0  0  0  0
 36 37  2  0  0  0  0
 37 39  1  0  0  0  0
 37 40  1  0  0  0  0
 38 36  1  0  0  0  0
 41 31  1  0  0  0  0
 42 46  1  0  0  0  0
 43 44  2  0  0  0  0
 43 42  1  0  0  0  0
 44 45  1  0  0  0  0
 45 46  2  0  0  0  0
 46 41  1  0  0  0  0
 47 43  1  0  0  0  0
 48 42  1  0  0  0  0
 48 49  1  0  0  0  0
 50 48  1  0  0  0  0
 51 48  1  0  0  0  0
M  END
>  <MODEL>
20

>  <REMARK>
 VINA RESULT:    -7.402      3.521      9.289
 INTER + INTRA:         -11.153
 INTER:                 -10.877
 INTRA:                  -0.276
 UNBOUND:                -0.506
  Name = 
  8 active torsions:
  status: ('A' for Active; 'I' for Inactive)
    1  A    between atoms: C_1  and  N_2
    2  A    between atoms: C_6  and  S_7
    3  A    between atoms: S_7  and  C_8
    4  A    between atoms: C_8  and  C_9
    5  A    between atoms: C_8  and  C_12
    6  A    between atoms: C_9  and  C_10
    7  A    between atoms: C_14  and  N_18
    8  A    between atoms: C_19  and  C_21
                            x       y       z     vdW  Elec       q    Type
                         _______ _______ _______ _____ _____    ______ ____

>  <TORSDO>
F 8

$$$$
=
 OpenBabel07192307433D

 51 54  0  0  1  0  0  0  0  0999 V2000
    2.9820    5.5300   19.1790 C   0  0  0  0  0  0  0  0  0  0  0  0
    2.6830    6.8980   19.3310 C   0  0  0  0  0  0  0  0  0  0  0  0
    1.6890    7.3350   20.2170 C   0  0  0  0  0  0  0  0  0  0  0  0
    0.9650    6.3910   20.9400 C   0  0  0  0  0  0  0  0  0  0  0  0
    1.2370    5.0280   20.7890 C   0  0  0  0  0  0  0  0  0  0  0  0
    2.2380    4.6000   19.9160 C   0  0  0  0  0  0  0  0  0  0  0  0
    3.2580    7.6340   18.7730 H   0  0  0  0  0  0  0  0  0  0  0  0
    0.1780    6.6820   21.6300 H   0  0  0  0  0  0  0  0  0  0  0  0
    0.6610    4.3030   21.3600 H   0  0  0  0  0  0  0  0  0  0  0  0
    2.4310    3.5330   19.8210 H   0  0  0  0  0  0  0  0  0  0  0  0
    1.4970    8.7220   20.3240 N   0  0  0  0  0  0  0  0  0  0  0  0
    1.0520    9.6160   19.3630 C   0  0  0  0  0  0  0  0  0  0  0  0
    0.7630    9.3390   18.2100 O   0  0  0  0  0  0  0  0  0  0  0  0
    1.6410    9.1470   21.2390 H   0  0  0  0  0  0  0  0  0  0  0  0
    0.9250   11.0180   19.9160 C   0  0  0  0  0  0  0  0  0  0  0  0
    0.0900   11.0840   21.0130 N   0  0  0  0  0  0  0  0  0  0  0  0
   -0.1250   12.2810   21.5830 C   0  0  0  0  0  0  0  0  0  0  0  0
   -0.9660   12.3710   22.6830 C   0  0  0  0  0  0  0  0  0  0  0  0
   -1.2290   13.5950   23.3060 C   0  0  0  0  0  0  0  0  0  0  0  0
   -0.6390   14.7580   22.8240 C   0  0  0  0  0  0  0  0  0  0  0  0
    0.2140   14.6940   21.7230 C   0  0  0  0  0  0  0  0  0  0  0  0
    0.4750   13.4610   21.0980 C   0  0  0  0  0  0  0  0  0  0  0  0
    1.3220   13.3650   19.9850 C   0  0  0  0  0  0  0  0  0  0  0  0
    1.5590   12.1310   19.3740 C   0  0  0  0  0  0  0  0  0  0  0  0
    2.6130   12.1210   18.0110 Cl  0  0  0  0  0  0  0  0  0  0  0  0
   -1.4360   11.4700   23.0670 H   0  0  0  0  0  0  0  0  0  0  0  0
   -1.8960   13.6350   24.1650 H   0  0  0  0  0  0  0  0  0  0  0  0
   -0.8420   15.7120   23.3050 H   0  0  0  0  0  0  0  0  0  0  0  0
    0.6670   15.6110   21.3530 H   0  0  0  0  0  0  0  0  0  0  0  0
    1.8000   14.2600   19.5860 H   0  0  0  0  0  0  0  0  0  0  0  0
    4.1120    5.0580   18.2680 C   0  0  1  0  0  0  0  0  0  0  0  0
    4.9090    4.6470   18.9010 H   0  0  0  0  0  0  0  0  0  0  0  0
    3.6470    3.9450   17.2990 C   0  0  0  0  0  0  0  0  0  0  0  0
    3.9480    4.1700   16.2680 H   0  0  0  0  0  0  0  0  0  0  0  0
    2.5490    3.9160   17.2910 H   0  0  0  0  0  0  0  0  0  0  0  0
    4.1680    2.5760   17.6570 C   0  0  0  0  0  0  0  0  0  0  0  0
    3.4190    1.6020   18.1900 C   0  0  0  0  0  0  0  0  0  0  0  0
    5.2200    2.3750   17.4570 H   0  0  0  0  0  0  0  0  0  0  0  0
    3.8580    0.6360   18.4240 H   0  0  0  0  0  0  0  0  0  0  0  0
    2.3650    1.7410   18.4130 H   0  0  0  0  0  0  0  0  0  0  0  0
    4.7810    6.5160   17.3500 S   0  0  0  0  0  0  0  0  0  0  0  0
    6.8720    5.0440   16.3860 N   0  0  0  0  0  0  0  0  0  0  0  0
    7.2670    4.5500   15.1780 C   0  0  0  0  0  0  0  0  0  0  0  0
    6.4380    4.9560   14.2410 N   0  0  0  0  0  0  0  0  0  0  0  0
    5.4540    5.7000   14.8520 N   0  0  0  0  0  0  0  0  0  0  0  0
    5.7120    5.7190   16.1400 C   0  0  0  0  0  0  0  0  0  0  0  0
    8.1380    3.9240   15.0290 H   0  0  0  0  0  0  0  0  0  0  0  0
    7.5330    4.8220   17.6430 C   0  0  0  0  0  0  0  0  0  0  0  0
    7.2200    5.5860   18.3610 H   0  0  0  0  0  0  0  0  0  0  0  0
    8.6120    4.8890   17.4840 H   0  0  0  0  0  0  0  0  0  0  0  0
    7.2600    3.8370   18.0330 H   0  0  0  0  0  0  0  0  0  0  0  0
  1  2  2  0  0  0  0
  1  6  1  0  0  0  0
  2  3  1  0  0  0  0
  3 11  1  0  0  0  0
  3  4  2  0  0  0  0
  4  8  1  0  0  0  0
  5  4  1  0  0  0  0
  5  9  1  0  0  0  0
  6  5  2  0  0  0  0
  7  2  1  0  0  0  0
 10  6  1  0  0  0  0
 11 14  1  0  0  0  0
 12 15  1  0  0  0  0
 12 11  1  0  0  0  0
 13 12  2  0  0  0  0
 15 16  1  0  0  0  0
 16 17  2  0  0  0  0
 17 18  1  0  0  0  0
 18 26  1  0  0  0  0
 18 19  2  0  0  0  0
 19 27  1  0  0  0  0
 20 28  1  0  0  0  0
 20 19  1  0  0  0  0
 21 20  2  0  0  0  0
 22 17  1  0  0  0  0
 22 21  1  0  0  0  0
 23 22  2  0  0  0  0
 24 15  2  0  0  0  0
 24 23  1  0  0  0  0
 25 24  1  0  0  0  0
 29 21  1  0  0  0  0
 30 23  1  0  0  0  0
 31 32  1  1  0  0  0
 31  1  1  0  0  0  0
 33 36  1  0  0  0  0
 33 31  1  0  0  0  0
 34 33  1  0  0  0  0
 35 33  1  0  0  0  0
 36 37  2  0  0  0  0
 37 40  1  0  0  0  0
 37 39  1  0  0  0  0
 38 36  1  0  0  0  0
 41 31  1  0  0  0  0
 42 48  1  0  0  0  0
 43 42  1  0  0  0  0
 44 45  1  0  0  0  0
 44 43  2  0  0  0  0
 45 46  2  0  0  0  0
 46 42  1  0  0  0  0
 46 41  1  0  0  0  0
 47 43  1  0  0  0  0
 48 51  1  0  0  0  0
 48 49  1  0  0  0  0
 50 48  1  0  0  0  0
M  END
>  <MODEL>
21

>  <REMARK>
 VINA RESULT:    -7.394      3.611      9.420
 INTER + INTRA:         -11.141
 INTER:                 -10.154
 INTRA:                  -0.987
 UNBOUND:                -0.506
  Name = 
  8 active torsions:
  status: ('A' for Active; 'I' for Inactive)
    1  A    between atoms: C_1  and  N_2
    2  A    between atoms: C_6  and  S_7
    3  A    between atoms: S_7  and  C_8
    4  A    between atoms: C_8  and  C_9
    5  A    between atoms: C_8  and  C_12
    6  A    between atoms: C_9  and  C_10
    7  A    between atoms: C_14  and  N_18
    8  A    between atoms: C_19  and  C_21
                            x       y       z     vdW  Elec       q    Type
                         _______ _______ _______ _____ _____    ______ ____

>  <TORSDO>
F 8

$$$$
=
 OpenBabel07192307433D

 51 54  0  0  1  0  0  0  0  0999 V2000
   -1.6030   11.7210   19.7250 C   0  0  0  0  0  0  0  0  0  0  0  0
   -0.6090   10.7360   19.5730 C   0  0  0  0  0  0  0  0  0  0  0  0
   -0.5240    9.9550   18.4120 C   0  0  0  0  0  0  0  0  0  0  0  0
   -1.4620   10.1430   17.4010 C   0  0  0  0  0  0  0  0  0  0  0  0
   -2.4660   11.1060   17.5410 C   0  0  0  0  0  0  0  0  0  0  0  0
   -2.5370   11.8900   18.6940 C   0  0  0  0  0  0  0  0  0  0  0  0
    0.1290   10.5990   20.3610 H   0  0  0  0  0  0  0  0  0  0  0  0
   -1.4420    9.5550   16.4880 H   0  0  0  0  0  0  0  0  0  0  0  0
   -3.1920   11.2400   16.7430 H   0  0  0  0  0  0  0  0  0  0  0  0
   -3.3270   12.6340   18.7750 H   0  0  0  0  0  0  0  0  0  0  0  0
    0.5290    9.0290   18.3440 N   0  0  0  0  0  0  0  0  0  0  0  0
    1.8720    9.2560   18.0890 C   0  0  0  0  0  0  0  0  0  0  0  0
    2.3800   10.3410   17.8490 O   0  0  0  0  0  0  0  0  0  0  0  0
    0.3160    8.0570   18.5650 H   0  0  0  0  0  0  0  0  0  0  0  0
    2.6840    7.9820   18.1720 C   0  0  0  0  0  0  0  0  0  0  0  0
    3.5060    7.8020   17.0790 N   0  0  0  0  0  0  0  0  0  0  0  0
    4.2630    6.6940   17.0220 C   0  0  0  0  0  0  0  0  0  0  0  0
    5.0910    6.4890   15.9280 C   0  0  0  0  0  0  0  0  0  0  0  0
    5.8910    5.3470   15.8180 C   0  0  0  0  0  0  0  0  0  0  0  0
    5.8680    4.3870   16.8220 C   0  0  0  0  0  0  0  0  0  0  0  0
    5.0480    4.5710   17.9340 C   0  0  0  0  0  0  0  0  0  0  0  0
    4.2430    5.7200   18.0410 C   0  0  0  0  0  0  0  0  0  0  0  0
    3.4030    5.9300   19.1430 C   0  0  0  0  0  0  0  0  0  0  0  0
    2.6050    7.0740   19.2230 C   0  0  0  0  0  0  0  0  0  0  0  0
    1.6050    7.2370   20.6170 Cl  0  0  0  0  0  0  0  0  0  0  0  0
    5.1160    7.2310   15.1330 H   0  0  0  0  0  0  0  0  0  0  0  0
    6.5290    5.2130   14.9450 H   0  0  0  0  0  0  0  0  0  0  0  0
    6.4880    3.4970   16.7400 H   0  0  0  0  0  0  0  0  0  0  0  0
    5.0360    3.8110   18.7120 H   0  0  0  0  0  0  0  0  0  0  0  0
    3.3650    5.1940   19.9470 H   0  0  0  0  0  0  0  0  0  0  0  0
   -1.6540   12.6190   20.9580 C   0  0  1  0  0  0  0  0  0  0  0  0
   -2.6590   12.5440   21.3910 H   0  0  0  0  0  0  0  0  0  0  0  0
   -0.6330   12.1830   22.0350 C   0  0  0  0  0  0  0  0  0  0  0  0
   -0.2800   13.0440   22.6150 H   0  0  0  0  0  0  0  0  0  0  0  0
    0.2570   11.7740   21.5360 H   0  0  0  0  0  0  0  0  0  0  0  0
   -1.1710   11.1520   22.9950 C   0  0  0  0  0  0  0  0  0  0  0  0
   -0.6410    9.9340   23.1650 C   0  0  0  0  0  0  0  0  0  0  0  0
   -2.0410   11.4300   23.5890 H   0  0  0  0  0  0  0  0  0  0  0  0
   -1.0780    9.2380   23.8760 H   0  0  0  0  0  0  0  0  0  0  0  0
    0.2260    9.5970   22.6020 H   0  0  0  0  0  0  0  0  0  0  0  0
   -1.3700   14.3680   20.4290 S   0  0  0  0  0  0  0  0  0  0  0  0
    1.3510   14.6200   20.5200 N   0  0  0  0  0  0  0  0  0  0  0  0
    2.4030   14.3440   19.6980 C   0  0  0  0  0  0  0  0  0  0  0  0
    1.9580   13.8990   18.5440 N   0  0  0  0  0  0  0  0  0  0  0  0
    0.5850   13.8420   18.6220 N   0  0  0  0  0  0  0  0  0  0  0  0
    0.2380   14.2500   19.8220 C   0  0  0  0  0  0  0  0  0  0  0  0
    3.4420   14.4820   19.9690 H   0  0  0  0  0  0  0  0  0  0  0  0
    1.4410   15.1310   21.8610 C   0  0  0  0  0  0  0  0  0  0  0  0
    0.8940   16.0770   21.9290 H   0  0  0  0  0  0  0  0  0  0  0  0
    2.4940   15.2990   22.0980 H   0  0  0  0  0  0  0  0  0  0  0  0
    0.9980   14.4150   22.5580 H   0  0  0  0  0  0  0  0  0  0  0  0
  1 31  1  0  0  0  0
  2  1  1  0  0  0  0
  2  7  1  0  0  0  0
  3  2  2  0  0  0  0
  4  5  2  0  0  0  0
  4  3  1  0  0  0  0
  5  6  1  0  0  0  0
  6 10  1  0  0  0  0
  6  1  2  0  0  0  0
  8  4  1  0  0  0  0
  9  5  1  0  0  0  0
 11  3  1  0  0  0  0
 11 14  1  0  0  0  0
 12 15  1  0  0  0  0
 12 11  1  0  0  0  0
 13 12  2  0  0  0  0
 15 24  1  0  0  0  0
 16 15  2  0  0  0  0
 17 16  1  0  0  0  0
 17 22  1  0  0  0  0
 18 17  2  0  0  0  0
 19 18  1  0  0  0  0
 19 20  2  0  0  0  0
 20 21  1  0  0  0  0
 21 22  2  0  0  0  0
 21 29  1  0  0  0  0
 22 23  1  0  0  0  0
 23 24  2  0  0  0  0
 23 30  1  0  0  0  0
 24 25  1  0  0  0  0
 26 18  1  0  0  0  0
 27 19  1  0  0  0  0
 28 20  1  0  0  0  0
 31 32  1  1  0  0  0
 31 33  1  0  0  0  0
 33 34  1  0  0  0  0
 33 36  1  0  0  0  0
 35 33  1  0  0  0  0
 36 37  2  0  0  0  0
 36 38  1  0  0  0  0
 37 39  1  0  0  0  0
 40 37  1  0  0  0  0
 41 31  1  0  0  0  0
 42 48  1  0  0  0  0
 43 47  1  0  0  0  0
 43 42  1  0  0  0  0
 44 45  1  0  0  0  0
 44 43  2  0  0  0  0
 45 46  2  0  0  0  0
 46 41  1  0  0  0  0
 46 42  1  0  0  0  0
 48 49  1  0  0  0  0
 48 50  1  0  0  0  0
 48 51  1  0  0  0  0
M  END
>  <MODEL>
22

>  <REMARK>
 VINA RESULT:    -7.350      2.844      4.485
 INTER + INTRA:         -11.078
 INTER:                 -10.138
 INTRA:                  -0.940
 UNBOUND:                -0.506
  Name = 
  8 active torsions:
  status: ('A' for Active; 'I' for Inactive)
    1  A    between atoms: C_1  and  N_2
    2  A    between atoms: C_6  and  S_7
    3  A    between atoms: S_7  and  C_8
    4  A    between atoms: C_8  and  C_9
    5  A    between atoms: C_8  and  C_12
    6  A    between atoms: C_9  and  C_10
    7  A    between atoms: C_14  and  N_18
    8  A    between atoms: C_19  and  C_21
                            x       y       z     vdW  Elec       q    Type
                         _______ _______ _______ _____ _____    ______ ____

>  <TORSDO>
F 8

$$$$
=
 OpenBabel07192307433D

 51 54  0  0  1  0  0  0  0  0999 V2000
    1.2940    9.1830   18.9220 C   0  0  0  0  0  0  0  0  0  0  0  0
    2.2800    8.5660   18.1300 C   0  0  0  0  0  0  0  0  0  0  0  0
    2.9070    7.3790   18.5350 C   0  0  0  0  0  0  0  0  0  0  0  0
    2.5630    6.8170   19.7620 C   0  0  0  0  0  0  0  0  0  0  0  0
    1.5970    7.4260   20.5690 C   0  0  0  0  0  0  0  0  0  0  0  0
    0.9670    8.6000   20.1540 C   0  0  0  0  0  0  0  0  0  0  0  0
    2.5400    9.0010   17.1670 H   0  0  0  0  0  0  0  0  0  0  0  0
    3.0290    5.9050   20.1220 H   0  0  0  0  0  0  0  0  0  0  0  0
    1.3400    6.9760   21.5250 H   0  0  0  0  0  0  0  0  0  0  0  0
    0.2160    9.0500   20.8010 H   0  0  0  0  0  0  0  0  0  0  0  0
    3.8480    6.8230   17.6530 N   0  0  0  0  0  0  0  0  0  0  0  0
    4.3340    5.5260   17.6060 C   0  0  0  0  0  0  0  0  0  0  0  0
    4.0300    4.6210   18.3680 O   0  0  0  0  0  0  0  0  0  0  0  0
    4.1930    7.4140   16.8990 H   0  0  0  0  0  0  0  0  0  0  0  0
    5.2900    5.3260   16.4510 C   0  0  0  0  0  0  0  0  0  0  0  0
    4.7300    4.6110   15.4130 N   0  0  0  0  0  0  0  0  0  0  0  0
    5.4860    4.3470   14.3350 C   0  0  0  0  0  0  0  0  0  0  0  0
    4.9450    3.6220   13.2830 C   0  0  0  0  0  0  0  0  0  0  0  0
    5.6950    3.3130   12.1430 C   0  0  0  0  0  0  0  0  0  0  0  0
    7.0150    3.7370   12.0470 C   0  0  0  0  0  0  0  0  0  0  0  0
    7.5810    4.4690   13.0900 C   0  0  0  0  0  0  0  0  0  0  0  0
    6.8250    4.7770   14.2350 C   0  0  0  0  0  0  0  0  0  0  0  0
    7.3680    5.5060   15.3020 C   0  0  0  0  0  0  0  0  0  0  0  0
    6.6010    5.7920   16.4340 C   0  0  0  0  0  0  0  0  0  0  0  0
    7.3630    6.6910   17.6910 Cl  0  0  0  0  0  0  0  0  0  0  0  0
    3.9140    3.2820   13.3460 H   0  0  0  0  0  0  0  0  0  0  0  0
    5.2430    2.7410   11.3340 H   0  0  0  0  0  0  0  0  0  0  0  0
    7.6020    3.4970   11.1640 H   0  0  0  0  0  0  0  0  0  0  0  0
    8.6170    4.7920   13.0050 H   0  0  0  0  0  0  0  0  0  0  0  0
    8.4010    5.8530   15.2550 H   0  0  0  0  0  0  0  0  0  0  0  0
    0.5610   10.4360   18.4500 C   0  0  1  0  0  0  0  0  0  0  0  0
    0.6140   10.4670   17.3540 H   0  0  0  0  0  0  0  0  0  0  0  0
   -0.9310   10.4230   18.8580 C   0  0  0  0  0  0  0  0  0  0  0  0
   -1.1670   11.2680   19.5170 H   0  0  0  0  0  0  0  0  0  0  0  0
   -1.1300    9.5180   19.4490 H   0  0  0  0  0  0  0  0  0  0  0  0
   -1.8780   10.4560   17.6850 C   0  0  0  0  0  0  0  0  0  0  0  0
   -2.9450    9.6570   17.5570 C   0  0  0  0  0  0  0  0  0  0  0  0
   -1.6770   11.1860   16.9020 H   0  0  0  0  0  0  0  0  0  0  0  0
   -3.5890    9.7340   16.6850 H   0  0  0  0  0  0  0  0  0  0  0  0
   -3.1990    8.9090   18.3040 H   0  0  0  0  0  0  0  0  0  0  0  0
    1.4320   11.9210   19.1250 S   0  0  0  0  0  0  0  0  0  0  0  0
   -0.4710   13.4600   20.3430 N   0  0  0  0  0  0  0  0  0  0  0  0
   -1.1710   13.4350   21.5120 C   0  0  0  0  0  0  0  0  0  0  0  0
   -0.7580   12.4310   22.2540 N   0  0  0  0  0  0  0  0  0  0  0  0
    0.2080   11.7570   21.5400 N   0  0  0  0  0  0  0  0  0  0  0  0
    0.3470   12.3690   20.3860 C   0  0  0  0  0  0  0  0  0  0  0  0
   -1.9440   14.1450   21.7770 H   0  0  0  0  0  0  0  0  0  0  0  0
   -0.6360   14.4170   19.2820 C   0  0  0  0  0  0  0  0  0  0  0  0
   -1.7010   14.6310   19.1450 H   0  0  0  0  0  0  0  0  0  0  0  0
   -0.2260   13.9900   18.3640 H   0  0  0  0  0  0  0  0  0  0  0  0
   -0.1190   15.3450   19.5410 H   0  0  0  0  0  0  0  0  0  0  0  0
  1  6  1  0  0  0  0
  2  3  1  0  0  0  0
  2  1  2  0  0  0  0
  3  4  2  0  0  0  0
  4  8  1  0  0  0  0
  4  5  1  0  0  0  0
  5  9  1  0  0  0  0
  6  5  2  0  0  0  0
  6 10  1  0  0  0  0
  7  2  1  0  0  0  0
 11  3  1  0  0  0  0
 12 11  1  0  0  0  0
 12 13  2  0  0  0  0
 14 11  1  0  0  0  0
 15 12  1  0  0  0  0
 16 15  2  0  0  0  0
 17 16  1  0  0  0  0
 18 26  1  0  0  0  0
 18 17  2  0  0  0  0
 19 18  1  0  0  0  0
 20 19  2  0  0  0  0
 20 21  1  0  0  0  0
 21 22  2  0  0  0  0
 22 17  1  0  0  0  0
 22 23  1  0  0  0  0
 23 24  2  0  0  0  0
 24 15  1  0  0  0  0
 24 25  1  0  0  0  0
 27 19  1  0  0  0  0
 28 20  1  0  0  0  0
 29 21  1  0  0  0  0
 30 23  1  0  0  0  0
 31 32  1  6  0  0  0
 31 33  1  0  0  0  0
 31  1  1  0  0  0  0
 31 41  1  0  0  0  0
 33 35  1  0  0  0  0
 33 34  1  0  0  0  0
 36 33  1  0  0  0  0
 37 36  2  0  0  0  0
 37 40  1  0  0  0  0
 38 36  1  0  0  0  0
 39 37  1  0  0  0  0
 41 46  1  0  0  0  0
 42 46  1  0  0  0  0
 42 43  1  0  0  0  0
 43 47  1  0  0  0  0
 43 44  2  0  0  0  0
 45 44  1  0  0  0  0
 46 45  2  0  0  0  0
 48 51  1  0  0  0  0
 48 42  1  0  0  0  0
 49 48  1  0  0  0  0
 50 48  1  0  0  0  0
M  END
>  <MODEL>
23

>  <REMARK>
 VINA RESULT:    -7.338      2.747      4.213
 INTER + INTRA:         -11.061
 INTER:                 -10.582
 INTRA:                  -0.480
 UNBOUND:                -0.506
  Name = 
  8 active torsions:
  status: ('A' for Active; 'I' for Inactive)
    1  A    between atoms: C_1  and  N_2
    2  A    between atoms: C_6  and  S_7
    3  A    between atoms: S_7  and  C_8
    4  A    between atoms: C_8  and  C_9
    5  A    between atoms: C_8  and  C_12
    6  A    between atoms: C_9  and  C_10
    7  A    between atoms: C_14  and  N_18
    8  A    between atoms: C_19  and  C_21
                            x       y       z     vdW  Elec       q    Type
                         _______ _______ _______ _____ _____    ______ ____

>  <TORSDO>
F 8

$$$$
=
 OpenBabel07192307433D

 51 54  0  0  1  0  0  0  0  0999 V2000
    3.4550    5.3590   19.1520 C   0  0  0  0  0  0  0  0  0  0  0  0
    3.0100    6.6810   19.3500 C   0  0  0  0  0  0  0  0  0  0  0  0
    1.9120    6.9670   20.1720 C   0  0  0  0  0  0  0  0  0  0  0  0
    1.2310    5.9160   20.7820 C   0  0  0  0  0  0  0  0  0  0  0  0
    1.6490    4.5970   20.5830 C   0  0  0  0  0  0  0  0  0  0  0  0
    2.7520    4.3190   19.7750 C   0  0  0  0  0  0  0  0  0  0  0  0
    3.5500    7.5000   18.8810 H   0  0  0  0  0  0  0  0  0  0  0  0
    0.3690    6.0890   21.4190 H   0  0  0  0  0  0  0  0  0  0  0  0
    1.1060    3.7870   21.0660 H   0  0  0  0  0  0  0  0  0  0  0  0
    3.0570    3.2830   19.6400 H   0  0  0  0  0  0  0  0  0  0  0  0
    1.5750    8.3210   20.3360 N   0  0  0  0  0  0  0  0  0  0  0  0
    1.1930    9.2440   19.3770 C   0  0  0  0  0  0  0  0  0  0  0  0
    1.1040    9.0330   18.1780 O   0  0  0  0  0  0  0  0  0  0  0  0
    1.5420    8.6850   21.2870 H   0  0  0  0  0  0  0  0  0  0  0  0
    0.8520   10.5840   19.9900 C   0  0  0  0  0  0  0  0  0  0  0  0
   -0.0030   10.4750   21.0670 N   0  0  0  0  0  0  0  0  0  0  0  0
   -0.4000   11.5980   21.6870 C   0  0  0  0  0  0  0  0  0  0  0  0
   -1.2670   11.5120   22.7670 C   0  0  0  0  0  0  0  0  0  0  0  0
   -1.7160   12.6520   23.4390 C   0  0  0  0  0  0  0  0  0  0  0  0
   -1.2920   13.9100   23.0290 C   0  0  0  0  0  0  0  0  0  0  0  0
   -0.4180   14.0250   21.9480 C   0  0  0  0  0  0  0  0  0  0  0  0
    0.0310   12.8750   21.2730 C   0  0  0  0  0  0  0  0  0  0  0  0
    0.9040   12.9570   20.1790 C   0  0  0  0  0  0  0  0  0  0  0  0
    1.3290   11.8030   19.5180 C   0  0  0  0  0  0  0  0  0  0  0  0
    2.3990   12.0120   18.1840 Cl  0  0  0  0  0  0  0  0  0  0  0  0
   -1.6090   10.5340   23.0970 H   0  0  0  0  0  0  0  0  0  0  0  0
   -2.3980   12.5530   24.2830 H   0  0  0  0  0  0  0  0  0  0  0  0
   -1.6400   14.8000   23.5480 H   0  0  0  0  0  0  0  0  0  0  0  0
   -0.0960   15.0150   21.6330 H   0  0  0  0  0  0  0  0  0  0  0  0
    1.2540   13.9310   19.8350 H   0  0  0  0  0  0  0  0  0  0  0  0
    4.6920    5.0520   18.3140 C   0  0  1  0  0  0  0  0  0  0  0  0
    5.0040    5.9800   17.8170 H   0  0  0  0  0  0  0  0  0  0  0  0
    5.8720    4.5540   19.1830 C   0  0  0  0  0  0  0  0  0  0  0  0
    6.2800    3.6150   18.7910 H   0  0  0  0  0  0  0  0  0  0  0  0
    5.4970    4.3210   20.1900 H   0  0  0  0  0  0  0  0  0  0  0  0
    6.9980    5.5500   19.3010 C   0  0  0  0  0  0  0  0  0  0  0  0
    7.5800    6.1540   18.2580 C   0  0  0  0  0  0  0  0  0  0  0  0
    7.3460    5.7920   20.3050 H   0  0  0  0  0  0  0  0  0  0  0  0
    8.3870    6.8650   18.4140 H   0  0  0  0  0  0  0  0  0  0  0  0
    7.2780    5.9550   17.2330 H   0  0  0  0  0  0  0  0  0  0  0  0
    4.2390    3.8130   17.0190 S   0  0  0  0  0  0  0  0  0  0  0  0
    5.5960    5.4830   15.3330 N   0  0  0  0  0  0  0  0  0  0  0  0
    6.5790    5.3660   14.3970 C   0  0  0  0  0  0  0  0  0  0  0  0
    6.8950    4.0980   14.2430 N   0  0  0  0  0  0  0  0  0  0  0  0
    6.1300    3.3700   15.1260 N   0  0  0  0  0  0  0  0  0  0  0  0
    5.3780    4.2160   15.7920 C   0  0  0  0  0  0  0  0  0  0  0  0
    7.0200    6.2000   13.8660 H   0  0  0  0  0  0  0  0  0  0  0  0
    4.9860    6.7110   15.7660 C   0  0  0  0  0  0  0  0  0  0  0  0
    4.0570    6.8750   15.2110 H   0  0  0  0  0  0  0  0  0  0  0  0
    5.6810    7.5310   15.5680 H   0  0  0  0  0  0  0  0  0  0  0  0
    4.7550    6.6510   16.8330 H   0  0  0  0  0  0  0  0  0  0  0  0
  1  2  2  0  0  0  0
  1  6  1  0  0  0  0
  2  3  1  0  0  0  0
  3 11  1  0  0  0  0
  3  4  2  0  0  0  0
  4  8  1  0  0  0  0
  5  4  1  0  0  0  0
  5  9  1  0  0  0  0
  6  5  2  0  0  0  0
  7  2  1  0  0  0  0
 10  6  1  0  0  0  0
 11 14  1  0  0  0  0
 12 15  1  0  0  0  0
 12 11  1  0  0  0  0
 13 12  2  0  0  0  0
 15 16  1  0  0  0  0
 16 17  2  0  0  0  0
 17 18  1  0  0  0  0
 18 26  1  0  0  0  0
 18 19  2  0  0  0  0
 19 27  1  0  0  0  0
 20 19  1  0  0  0  0
 20 28  1  0  0  0  0
 21 20  2  0  0  0  0
 22 17  1  0  0  0  0
 22 21  1  0  0  0  0
 23 22  2  0  0  0  0
 24 15  2  0  0  0  0
 24 23  1  0  0  0  0
 25 24  1  0  0  0  0
 29 21  1  0  0  0  0
 30 23  1  0  0  0  0
 31 32  1  6  0  0  0
 31  1  1  0  0  0  0
 31 33  1  0  0  0  0
 33 36  1  0  0  0  0
 33 35  1  0  0  0  0
 34 33  1  0  0  0  0
 36 38  1  0  0  0  0
 37 39  1  0  0  0  0
 37 36  2  0  0  0  0
 40 37  1  0  0  0  0
 41 31  1  0  0  0  0
 42 48  1  0  0  0  0
 42 46  1  0  0  0  0
 43 42  1  0  0  0  0
 44 43  2  0  0  0  0
 44 45  1  0  0  0  0
 45 46  2  0  0  0  0
 46 41  1  0  0  0  0
 47 43  1  0  0  0  0
 48 51  1  0  0  0  0
 49 48  1  0  0  0  0
 50 48  1  0  0  0  0
M  END
>  <MODEL>
24

>  <REMARK>
 VINA RESULT:    -7.303      3.709      9.234
 INTER + INTRA:         -11.011
 INTER:                 -10.387
 INTRA:                  -0.624
 UNBOUND:                -0.506
  Name = 
  8 active torsions:
  status: ('A' for Active; 'I' for Inactive)
    1  A    between atoms: C_1  and  N_2
    2  A    between atoms: C_6  and  S_7
    3  A    between atoms: S_7  and  C_8
    4  A    between atoms: C_8  and  C_9
    5  A    between atoms: C_8  and  C_12
    6  A    between atoms: C_9  and  C_10
    7  A    between atoms: C_14  and  N_18
    8  A    between atoms: C_19  and  C_21
                            x       y       z     vdW  Elec       q    Type
                         _______ _______ _______ _____ _____    ______ ____

>  <TORSDO>
F 8

$$$$
=
 OpenBabel07192307433D

 51 54  0  0  1  0  0  0  0  0999 V2000
    4.1650    4.2630   17.0840 C   0  0  0  0  0  0  0  0  0  0  0  0
    3.6200    5.4910   17.5070 C   0  0  0  0  0  0  0  0  0  0  0  0
    2.3570    5.5620   18.1100 C   0  0  0  0  0  0  0  0  0  0  0  0
    1.6160    4.3930   18.2680 C   0  0  0  0  0  0  0  0  0  0  0  0
    2.1350    3.1670   17.8390 C   0  0  0  0  0  0  0  0  0  0  0  0
    3.3990    3.1020   17.2520 C   0  0  0  0  0  0  0  0  0  0  0  0
    4.2060    6.4000   17.3920 H   0  0  0  0  0  0  0  0  0  0  0  0
    0.6290    4.4000   18.7200 H   0  0  0  0  0  0  0  0  0  0  0  0
    1.5440    2.2630   17.9680 H   0  0  0  0  0  0  0  0  0  0  0  0
    3.7790    2.1330   16.9300 H   0  0  0  0  0  0  0  0  0  0  0  0
    1.9230    6.8290   18.5330 N   0  0  0  0  0  0  0  0  0  0  0  0
    1.7480    7.3020   19.8230 C   0  0  0  0  0  0  0  0  0  0  0  0
    1.9260    6.6630   20.8490 O   0  0  0  0  0  0  0  0  0  0  0  0
    1.7650    7.5350   17.8160 H   0  0  0  0  0  0  0  0  0  0  0  0
    1.3280    8.7550   19.8370 C   0  0  0  0  0  0  0  0  0  0  0  0
    2.0220    9.5180   18.9210 N   0  0  0  0  0  0  0  0  0  0  0  0
    1.7570   10.8330   18.8510 C   0  0  0  0  0  0  0  0  0  0  0  0
    2.4490   11.6210   17.9420 C   0  0  0  0  0  0  0  0  0  0  0  0
    2.2160   12.9960   17.8370 C   0  0  0  0  0  0  0  0  0  0  0  0
    1.2700   13.6020   18.6550 C   0  0  0  0  0  0  0  0  0  0  0  0
    0.5580   12.8320   19.5750 C   0  0  0  0  0  0  0  0  0  0  0  0
    0.7960   11.4490   19.6780 C   0  0  0  0  0  0  0  0  0  0  0  0
    0.1020   10.6500   20.5970 C   0  0  0  0  0  0  0  0  0  0  0  0
    0.3620    9.2800   20.6890 C   0  0  0  0  0  0  0  0  0  0  0  0
   -0.5430    8.3870   21.8520 Cl  0  0  0  0  0  0  0  0  0  0  0  0
    3.1940   11.1600   17.2980 H   0  0  0  0  0  0  0  0  0  0  0  0
    2.7760   13.5890   17.1160 H   0  0  0  0  0  0  0  0  0  0  0  0
    1.0870   14.6710   18.5780 H   0  0  0  0  0  0  0  0  0  0  0  0
   -0.1770   13.3180   20.2120 H   0  0  0  0  0  0  0  0  0  0  0  0
   -0.6470   11.0970   21.2510 H   0  0  0  0  0  0  0  0  0  0  0  0
    5.5680    4.1760   16.4920 C   0  0  1  0  0  0  0  0  0  0  0  0
    6.2070    3.6440   17.2100 H   0  0  0  0  0  0  0  0  0  0  0  0
    5.5870    3.3900   15.1590 C   0  0  0  0  0  0  0  0  0  0  0  0
    4.5830    3.0360   14.8960 H   0  0  0  0  0  0  0  0  0  0  0  0
    6.1990    2.4860   15.2880 H   0  0  0  0  0  0  0  0  0  0  0  0
    6.1300    4.1840   13.9980 C   0  0  0  0  0  0  0  0  0  0  0  0
    6.2910    3.6950   12.7620 C   0  0  0  0  0  0  0  0  0  0  0  0
    6.3980    5.2240   14.1860 H   0  0  0  0  0  0  0  0  0  0  0  0
    6.6880    4.3230   11.9690 H   0  0  0  0  0  0  0  0  0  0  0  0
    6.0440    2.6670   12.5110 H   0  0  0  0  0  0  0  0  0  0  0  0
    6.2270    5.8900   16.2740 S   0  0  0  0  0  0  0  0  0  0  0  0
    7.7880    7.1930   18.1010 N   0  0  0  0  0  0  0  0  0  0  0  0
    8.4170    6.8840   19.2700 C   0  0  0  0  0  0  0  0  0  0  0  0
    8.2660    5.6040   19.5300 N   0  0  0  0  0  0  0  0  0  0  0  0
    7.4880    5.0660   18.5300 N   0  0  0  0  0  0  0  0  0  0  0  0
    7.1850    6.0370   17.6970 C   0  0  0  0  0  0  0  0  0  0  0  0
    8.9590    7.5970   19.8790 H   0  0  0  0  0  0  0  0  0  0  0  0
    7.7390    8.4920   17.4870 C   0  0  0  0  0  0  0  0  0  0  0  0
    8.6020    9.0820   17.8100 H   0  0  0  0  0  0  0  0  0  0  0  0
    6.8180    8.9880   17.8010 H   0  0  0  0  0  0  0  0  0  0  0  0
    7.7680    8.3860   16.3990 H   0  0  0  0  0  0  0  0  0  0  0  0
  1  6  2  0  0  0  0
  1  2  1  0  0  0  0
  2  3  2  0  0  0  0
  3  4  1  0  0  0  0
  3 11  1  0  0  0  0
  4  8  1  0  0  0  0
  5  9  1  0  0  0  0
  5  4  2  0  0  0  0
  6  5  1  0  0  0  0
  7  2  1  0  0  0  0
 10  6  1  0  0  0  0
 11 12  1  0  0  0  0
 12 15  1  0  0  0  0
 12 13  2  0  0  0  0
 14 11  1  0  0  0  0
 15 24  1  0  0  0  0
 16 15  2  0  0  0  0
 17 16  1  0  0  0  0
 17 22  1  0  0  0  0
 18 17  2  0  0  0  0
 19 18  1  0  0  0  0
 19 20  2  0  0  0  0
 20 21  1  0  0  0  0
 21 22  2  0  0  0  0
 21 29  1  0  0  0  0
 22 23  1  0  0  0  0
 23 24  2  0  0  0  0
 23 30  1  0  0  0  0
 24 25  1  0  0  0  0
 26 18  1  0  0  0  0
 27 19  1  0  0  0  0
 28 20  1  0  0  0  0
 31  1  1  0  0  0  0
 31 32  1  1  0  0  0
 33 35  1  0  0  0  0
 33 31  1  0  0  0  0
 34 33  1  0  0  0  0
 36 38  1  0  0  0  0
 36 33  1  0  0  0  0
 37 36  2  0  0  0  0
 39 37  1  0  0  0  0
 40 37  1  0  0  0  0
 41 31  1  0  0  0  0
 41 46  1  0  0  0  0
 42 43  1  0  0  0  0
 43 44  2  0  0  0  0
 43 47  1  0  0  0  0
 45 44  1  0  0  0  0
 46 42  1  0  0  0  0
 46 45  2  0  0  0  0
 48 50  1  0  0  0  0
 48 49  1  0  0  0  0
 48 42  1  0  0  0  0
 51 48  1  0  0  0  0
M  END
>  <MODEL>
25

>  <REMARK>
 VINA RESULT:    -7.299      3.514      9.014
 INTER + INTRA:         -11.005
 INTER:                  -9.939
 INTRA:                  -1.065
 UNBOUND:                -0.506
  Name = 
  8 active torsions:
  status: ('A' for Active; 'I' for Inactive)
    1  A    between atoms: C_1  and  N_2
    2  A    between atoms: C_6  and  S_7
    3  A    between atoms: S_7  and  C_8
    4  A    between atoms: C_8  and  C_9
    5  A    between atoms: C_8  and  C_12
    6  A    between atoms: C_9  and  C_10
    7  A    between atoms: C_14  and  N_18
    8  A    between atoms: C_19  and  C_21
                            x       y       z     vdW  Elec       q    Type
                         _______ _______ _______ _____ _____    ______ ____

>  <TORSDO>
F 8

$$$$
=
 OpenBabel07192307433D

 51 54  0  0  1  0  0  0  0  0999 V2000
   -0.2660   10.4430   20.7760 C   0  0  0  0  0  0  0  0  0  0  0  0
    0.5200    9.4510   20.1600 C   0  0  0  0  0  0  0  0  0  0  0  0
    1.2460    8.5190   20.9150 C   0  0  0  0  0  0  0  0  0  0  0  0
    1.2070    8.5970   22.3050 C   0  0  0  0  0  0  0  0  0  0  0  0
    0.4450    9.5860   22.9330 C   0  0  0  0  0  0  0  0  0  0  0  0
   -0.2870   10.5020   22.1760 C   0  0  0  0  0  0  0  0  0  0  0  0
    0.5410    9.3860   19.0740 H   0  0  0  0  0  0  0  0  0  0  0  0
    1.7610    7.9040   22.9300 H   0  0  0  0  0  0  0  0  0  0  0  0
    0.4250    9.6350   24.0190 H   0  0  0  0  0  0  0  0  0  0  0  0
   -0.8750   11.2600   22.6920 H   0  0  0  0  0  0  0  0  0  0  0  0
    1.9660    7.5450   20.2030 N   0  0  0  0  0  0  0  0  0  0  0  0
    1.8950    6.1650   20.3040 C   0  0  0  0  0  0  0  0  0  0  0  0
    1.1820    5.5410   21.0740 O   0  0  0  0  0  0  0  0  0  0  0  0
    2.5900    7.8680   19.4650 H   0  0  0  0  0  0  0  0  0  0  0  0
    2.7980    5.4810   19.3020 C   0  0  0  0  0  0  0  0  0  0  0  0
    3.3050    6.3530   18.3600 N   0  0  0  0  0  0  0  0  0  0  0  0
    4.1050    5.8630   17.3990 C   0  0  0  0  0  0  0  0  0  0  0  0
    4.6190    6.7200   16.4370 C   0  0  0  0  0  0  0  0  0  0  0  0
    5.4490    6.2570   15.4110 C   0  0  0  0  0  0  0  0  0  0  0  0
    5.7770    4.9090   15.3410 C   0  0  0  0  0  0  0  0  0  0  0  0
    5.2770    4.0270   16.2980 C   0  0  0  0  0  0  0  0  0  0  0  0
    4.4410    4.4960   17.3280 C   0  0  0  0  0  0  0  0  0  0  0  0
    3.9170    3.6330   18.3000 C   0  0  0  0  0  0  0  0  0  0  0  0
    3.0810    4.1190   19.3090 C   0  0  0  0  0  0  0  0  0  0  0  0
    2.4860    2.9770   20.4530 Cl  0  0  0  0  0  0  0  0  0  0  0  0
    4.3680    7.7770   16.4780 H   0  0  0  0  0  0  0  0  0  0  0  0
    5.8350    6.9540   14.6680 H   0  0  0  0  0  0  0  0  0  0  0  0
    6.4210    4.5440   14.5440 H   0  0  0  0  0  0  0  0  0  0  0  0
    5.5380    2.9730   16.2310 H   0  0  0  0  0  0  0  0  0  0  0  0
    4.1580    2.5690   18.2720 H   0  0  0  0  0  0  0  0  0  0  0  0
   -1.1110   11.4130   19.9560 C   0  0  1  0  0  0  0  0  0  0  0  0
   -1.9710   10.8600   19.5560 H   0  0  0  0  0  0  0  0  0  0  0  0
   -1.6500   12.5820   20.8150 C   0  0  0  0  0  0  0  0  0  0  0  0
   -1.3920   13.5500   20.3690 H   0  0  0  0  0  0  0  0  0  0  0  0
   -1.1520   12.5610   21.7940 H   0  0  0  0  0  0  0  0  0  0  0  0
   -3.1420   12.5380   21.0260 C   0  0  0  0  0  0  0  0  0  0  0  0
   -4.0450   12.6940   20.0500 C   0  0  0  0  0  0  0  0  0  0  0  0
   -3.4970   12.3600   22.0410 H   0  0  0  0  0  0  0  0  0  0  0  0
   -5.1080   12.6500   20.2710 H   0  0  0  0  0  0  0  0  0  0  0  0
   -3.7540   12.8750   19.0180 H   0  0  0  0  0  0  0  0  0  0  0  0
   -0.0970   12.0300   18.5380 S   0  0  0  0  0  0  0  0  0  0  0  0
    0.8410   14.4580   19.3710 N   0  0  0  0  0  0  0  0  0  0  0  0
    1.8620   14.9150   20.1500 C   0  0  0  0  0  0  0  0  0  0  0  0
    2.6090   13.9050   20.5390 N   0  0  0  0  0  0  0  0  0  0  0  0
    2.0450   12.7540   20.0370 N   0  0  0  0  0  0  0  0  0  0  0  0
    0.9700   13.1000   19.3640 C   0  0  0  0  0  0  0  0  0  0  0  0
    2.0220   15.9570   20.3980 H   0  0  0  0  0  0  0  0  0  0  0  0
   -0.1770   15.2660   18.7560 C   0  0  0  0  0  0  0  0  0  0  0  0
   -1.1030   14.6890   18.6760 H   0  0  0  0  0  0  0  0  0  0  0  0
    0.1640   15.5540   17.7590 H   0  0  0  0  0  0  0  0  0  0  0  0
   -0.3640   16.1520   19.3700 H   0  0  0  0  0  0  0  0  0  0  0  0
  1  6  1  0  0  0  0
  2  1  2  0  0  0  0
  2  3  1  0  0  0  0
  3  4  2  0  0  0  0
  4  8  1  0  0  0  0
  4  5  1  0  0  0  0
  5  9  1  0  0  0  0
  6 10  1  0  0  0  0
  6  5  2  0  0  0  0
  7  2  1  0  0  0  0
 11 12  1  0  0  0  0
 11  3  1  0  0  0  0
 12 13  2  0  0  0  0
 14 11  1  0  0  0  0
 15 24  1  0  0  0  0
 15 12  1  0  0  0  0
 16 15  2  0  0  0  0
 17 16  1  0  0  0  0
 18 26  1  0  0  0  0
 18 17  2  0  0  0  0
 19 18  1  0  0  0  0
 20 19  2  0  0  0  0
 20 21  1  0  0  0  0
 21 22  2  0  0  0  0
 22 17  1  0  0  0  0
 22 23  1  0  0  0  0
 23 24  2  0  0  0  0
 24 25  1  0  0  0  0
 27 19  1  0  0  0  0
 28 20  1  0  0  0  0
 29 21  1  0  0  0  0
 30 23  1  0  0  0  0
 31 32  1  6  0  0  0
 31  1  1  0  0  0  0
 31 33  1  0  0  0  0
 33 36  1  0  0  0  0
 33 35  1  0  0  0  0
 34 33  1  0  0  0  0
 36 38  1  0  0  0  0
 37 39  1  0  0  0  0
 37 36  2  0  0  0  0
 40 37  1  0  0  0  0
 41 46  1  0  0  0  0
 41 31  1  0  0  0  0
 42 43  1  0  0  0  0
 43 47  1  0  0  0  0
 43 44  2  0  0  0  0
 45 44  1  0  0  0  0
 46 42  1  0  0  0  0
 46 45  2  0  0  0  0
 48 51  1  0  0  0  0
 48 42  1  0  0  0  0
 49 48  1  0  0  0  0
 50 48  1  0  0  0  0
M  END
>  <MODEL>
26

>  <REMARK>
 VINA RESULT:    -7.269      2.484      3.429
 INTER + INTRA:         -10.961
 INTER:                 -10.219
 INTRA:                  -0.742
 UNBOUND:                -0.506
  Name = 
  8 active torsions:
  status: ('A' for Active; 'I' for Inactive)
    1  A    between atoms: C_1  and  N_2
    2  A    between atoms: C_6  and  S_7
    3  A    between atoms: S_7  and  C_8
    4  A    between atoms: C_8  and  C_9
    5  A    between atoms: C_8  and  C_12
    6  A    between atoms: C_9  and  C_10
    7  A    between atoms: C_14  and  N_18
    8  A    between atoms: C_19  and  C_21
                            x       y       z     vdW  Elec       q    Type
                         _______ _______ _______ _____ _____    ______ ____

>  <TORSDO>
F 8

$$$$
=
 OpenBabel07192307433D

 51 54  0  0  1  0  0  0  0  0999 V2000
    0.4730   10.4910   20.6730 C   0  0  0  0  0  0  0  0  0  0  0  0
    1.2310    9.5030   20.0170 C   0  0  0  0  0  0  0  0  0  0  0  0
    1.3030    8.1910   20.5060 C   0  0  0  0  0  0  0  0  0  0  0  0
    0.6300    7.8700   21.6830 C   0  0  0  0  0  0  0  0  0  0  0  0
   -0.1140    8.8440   22.3560 C   0  0  0  0  0  0  0  0  0  0  0  0
   -0.1940   10.1440   21.8560 C   0  0  0  0  0  0  0  0  0  0  0  0
    1.7470    9.7540   19.0930 H   0  0  0  0  0  0  0  0  0  0  0  0
    0.6660    6.8710   22.1050 H   0  0  0  0  0  0  0  0  0  0  0  0
   -0.6330    8.5780   23.2740 H   0  0  0  0  0  0  0  0  0  0  0  0
   -0.7830   10.8810   22.3990 H   0  0  0  0  0  0  0  0  0  0  0  0
    2.0530    7.2720   19.7550 N   0  0  0  0  0  0  0  0  0  0  0  0
    2.2320    5.9150   19.9690 C   0  0  0  0  0  0  0  0  0  0  0  0
    1.7670    5.2710   20.8970 O   0  0  0  0  0  0  0  0  0  0  0  0
    2.4890    7.6090   18.8980 H   0  0  0  0  0  0  0  0  0  0  0  0
    3.0660    5.2780   18.8800 C   0  0  0  0  0  0  0  0  0  0  0  0
    4.2700    5.9240   18.6850 N   0  0  0  0  0  0  0  0  0  0  0  0
    5.0930    5.4690   17.7270 C   0  0  0  0  0  0  0  0  0  0  0  0
    6.3050    6.1080   17.5090 C   0  0  0  0  0  0  0  0  0  0  0  0
    7.1930    5.6780   16.5170 C   0  0  0  0  0  0  0  0  0  0  0  0
    6.8680    4.5830   15.7240 C   0  0  0  0  0  0  0  0  0  0  0  0
    5.6570    3.9210   15.9260 C   0  0  0  0  0  0  0  0  0  0  0  0
    4.7660    4.3580   16.9230 C   0  0  0  0  0  0  0  0  0  0  0  0
    3.5390    3.7170   17.1450 C   0  0  0  0  0  0  0  0  0  0  0  0
    2.6660    4.1740   18.1350 C   0  0  0  0  0  0  0  0  0  0  0  0
    1.1810    3.3190   18.3260 Cl  0  0  0  0  0  0  0  0  0  0  0  0
    6.5710    6.9670   18.1200 H   0  0  0  0  0  0  0  0  0  0  0  0
    8.1360    6.2010   16.3680 H   0  0  0  0  0  0  0  0  0  0  0  0
    7.5540    4.2470   14.9510 H   0  0  0  0  0  0  0  0  0  0  0  0
    5.4120    3.0680   15.2970 H   0  0  0  0  0  0  0  0  0  0  0  0
    3.2570    2.8550   16.5390 H   0  0  0  0  0  0  0  0  0  0  0  0
    0.3360   11.9000   20.1030 C   0  0  1  0  0  0  0  0  0  0  0  0
    0.8790   12.5880   20.7650 H   0  0  0  0  0  0  0  0  0  0  0  0
    0.9480   12.0140   18.6870 C   0  0  0  0  0  0  0  0  0  0  0  0
    0.2850   12.5730   18.0150 H   0  0  0  0  0  0  0  0  0  0  0  0
    1.0330   11.0080   18.2540 H   0  0  0  0  0  0  0  0  0  0  0  0
    2.3060   12.6690   18.6670 C   0  0  0  0  0  0  0  0  0  0  0  0
    2.5470   13.8880   18.1670 C   0  0  0  0  0  0  0  0  0  0  0  0
    3.1370   12.1080   19.0970 H   0  0  0  0  0  0  0  0  0  0  0  0
    3.5520   14.3020   18.1860 H   0  0  0  0  0  0  0  0  0  0  0  0
    1.7620   14.4950   17.7250 H   0  0  0  0  0  0  0  0  0  0  0  0
   -1.4520   12.3690   20.1050 S   0  0  0  0  0  0  0  0  0  0  0  0
   -2.5950   14.1250   21.8610 N   0  0  0  0  0  0  0  0  0  0  0  0
   -2.2170   14.7890   22.9900 C   0  0  0  0  0  0  0  0  0  0  0  0
   -0.9490   14.5500   23.2410 N   0  0  0  0  0  0  0  0  0  0  0  0
   -0.4920   13.6790   22.2780 N   0  0  0  0  0  0  0  0  0  0  0  0
   -1.4980   13.4110   21.4750 C   0  0  0  0  0  0  0  0  0  0  0  0
   -2.8740   15.4180   23.5770 H   0  0  0  0  0  0  0  0  0  0  0  0
   -3.9050   14.1470   21.2680 C   0  0  0  0  0  0  0  0  0  0  0  0
   -4.2670   13.1230   21.1410 H   0  0  0  0  0  0  0  0  0  0  0  0
   -3.8350   14.6350   20.2930 H   0  0  0  0  0  0  0  0  0  0  0  0
   -4.5940   14.6890   21.9210 H   0  0  0  0  0  0  0  0  0  0  0  0
  1  6  1  0  0  0  0
  2  3  1  0  0  0  0
  2  1  2  0  0  0  0
  3  4  2  0  0  0  0
  4  8  1  0  0  0  0
  4  5  1  0  0  0  0
  5  9  1  0  0  0  0
  6  5  2  0  0  0  0
  6 10  1  0  0  0  0
  7  2  1  0  0  0  0
 11 12  1  0  0  0  0
 11  3  1  0  0  0  0
 12 13  2  0  0  0  0
 14 11  1  0  0  0  0
 15 12  1  0  0  0  0
 16 15  1  0  0  0  0
 17 16  2  0  0  0  0
 18 17  1  0  0  0  0
 18 26  1  0  0  0  0
 19 18  2  0  0  0  0
 20 21  2  0  0  0  0
 20 19  1  0  0  0  0
 21 22  1  0  0  0  0
 22 23  2  0  0  0  0
 22 17  1  0  0  0  0
 23 24  1  0  0  0  0
 24 25  1  0  0  0  0
 24 15  2  0  0  0  0
 27 19  1  0  0  0  0
 28 20  1  0  0  0  0
 29 21  1  0  0  0  0
 30 23  1  0  0  0  0
 31 41  1  0  0  0  0
 31  1  1  0  0  0  0
 31 32  1  1  0  0  0
 33 31  1  0  0  0  0
 34 33  1  0  0  0  0
 35 33  1  0  0  0  0
 36 33  1  0  0  0  0
 36 38  1  0  0  0  0
 37 39  1  0  0  0  0
 37 36  2  0  0  0  0
 40 37  1  0  0  0  0
 41 46  1  0  0  0  0
 42 43  1  0  0  0  0
 43 44  2  0  0  0  0
 43 47  1  0  0  0  0
 45 44  1  0  0  0  0
 46 42  1  0  0  0  0
 46 45  2  0  0  0  0
 48 42  1  0  0  0  0
 48 51  1  0  0  0  0
 49 48  1  0  0  0  0
 50 48  1  0  0  0  0
M  END
>  <MODEL>
27

>  <REMARK>
 VINA RESULT:    -7.263      2.370      2.942
 INTER + INTRA:         -10.953
 INTER:                 -10.479
 INTRA:                  -0.475
 UNBOUND:                -0.506
  Name = 
  8 active torsions:
  status: ('A' for Active; 'I' for Inactive)
    1  A    between atoms: C_1  and  N_2
    2  A    between atoms: C_6  and  S_7
    3  A    between atoms: S_7  and  C_8
    4  A    between atoms: C_8  and  C_9
    5  A    between atoms: C_8  and  C_12
    6  A    between atoms: C_9  and  C_10
    7  A    between atoms: C_14  and  N_18
    8  A    between atoms: C_19  and  C_21
                            x       y       z     vdW  Elec       q    Type
                         _______ _______ _______ _____ _____    ______ ____

>  <TORSDO>
F 8

$$$$
=
 OpenBabel07192307433D

 51 54  0  0  1  0  0  0  0  0999 V2000
    1.5760    8.5520   19.7080 C   0  0  0  0  0  0  0  0  0  0  0  0
    2.5430    8.0430   18.8200 C   0  0  0  0  0  0  0  0  0  0  0  0
    2.9680    6.7090   18.8880 C   0  0  0  0  0  0  0  0  0  0  0  0
    2.4400    5.8810   19.8740 C   0  0  0  0  0  0  0  0  0  0  0  0
    1.4920    6.3740   20.7750 C   0  0  0  0  0  0  0  0  0  0  0  0
    1.0620    7.6990   20.6930 C   0  0  0  0  0  0  0  0  0  0  0  0
    2.9450    8.6900   18.0430 H   0  0  0  0  0  0  0  0  0  0  0  0
    2.7470    4.8430   19.9720 H   0  0  0  0  0  0  0  0  0  0  0  0
    1.0900    5.7150   21.5410 H   0  0  0  0  0  0  0  0  0  0  0  0
    0.3200    8.0560   21.4060 H   0  0  0  0  0  0  0  0  0  0  0  0
    3.9050    6.2900   17.9290 N   0  0  0  0  0  0  0  0  0  0  0  0
    4.5720    5.0790   17.8370 C   0  0  0  0  0  0  0  0  0  0  0  0
    4.4690    4.1460   18.6170 O   0  0  0  0  0  0  0  0  0  0  0  0
    4.0960    6.9200   17.1520 H   0  0  0  0  0  0  0  0  0  0  0  0
    5.4500    5.0140   16.6070 C   0  0  0  0  0  0  0  0  0  0  0  0
    4.8380    4.3740   15.5490 N   0  0  0  0  0  0  0  0  0  0  0  0
    5.5240    4.2310   14.4030 C   0  0  0  0  0  0  0  0  0  0  0  0
    4.9300    3.5840   13.3290 C   0  0  0  0  0  0  0  0  0  0  0  0
    5.6060    3.4010   12.1190 C   0  0  0  0  0  0  0  0  0  0  0  0
    6.9040    3.8750   11.9720 C   0  0  0  0  0  0  0  0  0  0  0  0
    7.5230    4.5320   13.0360 C   0  0  0  0  0  0  0  0  0  0  0  0
    6.8400    4.7130   14.2520 C   0  0  0  0  0  0  0  0  0  0  0  0
    7.4370    5.3630   15.3410 C   0  0  0  0  0  0  0  0  0  0  0  0
    6.7430    5.5230   16.5430 C   0  0  0  0  0  0  0  0  0  0  0  0
    7.5670    6.3330   17.8220 Cl  0  0  0  0  0  0  0  0  0  0  0  0
    3.9160    3.2050   13.4310 H   0  0  0  0  0  0  0  0  0  0  0  0
    5.1150    2.8870   11.2940 H   0  0  0  0  0  0  0  0  0  0  0  0
    7.4340    3.7340   11.0330 H   0  0  0  0  0  0  0  0  0  0  0  0
    8.5400    4.8960   12.9100 H   0  0  0  0  0  0  0  0  0  0  0  0
    8.4540    5.7460   15.2560 H   0  0  0  0  0  0  0  0  0  0  0  0
    1.0610    9.9840   19.5900 C   0  0  1  0  0  0  0  0  0  0  0  0
    1.5060   10.5720   20.4030 H   0  0  0  0  0  0  0  0  0  0  0  0
    1.4660   10.6370   18.2480 C   0  0  0  0  0  0  0  0  0  0  0  0
    0.5880   10.8090   17.6130 H   0  0  0  0  0  0  0  0  0  0  0  0
    2.1060    9.9380   17.6910 H   0  0  0  0  0  0  0  0  0  0  0  0
    2.2000   11.9450   18.4090 C   0  0  0  0  0  0  0  0  0  0  0  0
    1.6210   13.0890   18.7960 C   0  0  0  0  0  0  0  0  0  0  0  0
    3.2700   11.9450   18.2040 H   0  0  0  0  0  0  0  0  0  0  0  0
    2.2100   13.9970   18.8940 H   0  0  0  0  0  0  0  0  0  0  0  0
    0.5590   13.1530   19.0140 H   0  0  0  0  0  0  0  0  0  0  0  0
   -0.7750    9.9720   19.8070 S   0  0  0  0  0  0  0  0  0  0  0  0
   -0.8340   11.1560   22.2710 N   0  0  0  0  0  0  0  0  0  0  0  0
   -1.0340   12.4100   22.7660 C   0  0  0  0  0  0  0  0  0  0  0  0
   -1.3350   13.2320   21.7850 N   0  0  0  0  0  0  0  0  0  0  0  0
   -1.2940   12.5110   20.6120 N   0  0  0  0  0  0  0  0  0  0  0  0
   -0.9640   11.2760   20.9180 C   0  0  0  0  0  0  0  0  0  0  0  0
   -0.9570   12.6720   23.8140 H   0  0  0  0  0  0  0  0  0  0  0  0
   -0.4950    9.9900   23.0400 C   0  0  0  0  0  0  0  0  0  0  0  0
   -1.3600    9.6780   23.6330 H   0  0  0  0  0  0  0  0  0  0  0  0
    0.3340   10.2440   23.7070 H   0  0  0  0  0  0  0  0  0  0  0  0
   -0.2130    9.1750   22.3680 H   0  0  0  0  0  0  0  0  0  0  0  0
  1  6  1  0  0  0  0
  2  3  1  0  0  0  0
  2  1  2  0  0  0  0
  3  4  2  0  0  0  0
  4  8  1  0  0  0  0
  4  5  1  0  0  0  0
  5  9  1  0  0  0  0
  6  5  2  0  0  0  0
  6 10  1  0  0  0  0
  7  2  1  0  0  0  0
 11  3  1  0  0  0  0
 12 11  1  0  0  0  0
 12 13  2  0  0  0  0
 14 11  1  0  0  0  0
 15 12  1  0  0  0  0
 16 15  2  0  0  0  0
 17 16  1  0  0  0  0
 18 26  1  0  0  0  0
 18 17  2  0  0  0  0
 19 18  1  0  0  0  0
 20 19  2  0  0  0  0
 20 21  1  0  0  0  0
 21 22  2  0  0  0  0
 22 17  1  0  0  0  0
 22 23  1  0  0  0  0
 23 24  2  0  0  0  0
 24 15  1  0  0  0  0
 24 25  1  0  0  0  0
 27 19  1  0  0  0  0
 28 20  1  0  0  0  0
 29 21  1  0  0  0  0
 30 23  1  0  0  0  0
 31  1  1  0  0  0  0
 31 41  1  0  0  0  0
 31 32  1  1  0  0  0
 33 36  1  0  0  0  0
 33 31  1  0  0  0  0
 34 33  1  0  0  0  0
 35 33  1  0  0  0  0
 36 37  2  0  0  0  0
 37 39  1  0  0  0  0
 37 40  1  0  0  0  0
 38 36  1  0  0  0  0
 41 46  1  0  0  0  0
 42 43  1  0  0  0  0
 42 48  1  0  0  0  0
 43 47  1  0  0  0  0
 44 43  2  0  0  0  0
 45 46  2  0  0  0  0
 45 44  1  0  0  0  0
 46 42  1  0  0  0  0
 48 49  1  0  0  0  0
 48 50  1  0  0  0  0
 51 48  1  0  0  0  0
M  END
>  <MODEL>
28

>  <REMARK>
 VINA RESULT:    -7.210      2.772      4.208
 INTER + INTRA:         -10.876
 INTER:                 -10.184
 INTRA:                  -0.692
 UNBOUND:                -0.506
  Name = 
  8 active torsions:
  status: ('A' for Active; 'I' for Inactive)
    1  A    between atoms: C_1  and  N_2
    2  A    between atoms: C_6  and  S_7
    3  A    between atoms: S_7  and  C_8
    4  A    between atoms: C_8  and  C_9
    5  A    between atoms: C_8  and  C_12
    6  A    between atoms: C_9  and  C_10
    7  A    between atoms: C_14  and  N_18
    8  A    between atoms: C_19  and  C_21
                            x       y       z     vdW  Elec       q    Type
                         _______ _______ _______ _____ _____    ______ ____

>  <TORSDO>
F 8

$$$$
=
 OpenBabel07192307433D

 51 54  0  0  1  0  0  0  0  0999 V2000
   -0.5340   11.3630   20.9170 C   0  0  0  0  0  0  0  0  0  0  0  0
    0.2830   10.3650   20.3530 C   0  0  0  0  0  0  0  0  0  0  0  0
    0.6790    9.2410   21.0910 C   0  0  0  0  0  0  0  0  0  0  0  0
    0.2750    9.1260   22.4190 C   0  0  0  0  0  0  0  0  0  0  0  0
   -0.5230   10.1160   23.0000 C   0  0  0  0  0  0  0  0  0  0  0  0
   -0.9260   11.2260   22.2560 C   0  0  0  0  0  0  0  0  0  0  0  0
    0.5890   10.4530   19.3130 H   0  0  0  0  0  0  0  0  0  0  0  0
    0.5650    8.2790   23.0320 H   0  0  0  0  0  0  0  0  0  0  0  0
   -0.8300   10.0130   24.0380 H   0  0  0  0  0  0  0  0  0  0  0  0
   -1.5510   11.9800   22.7330 H   0  0  0  0  0  0  0  0  0  0  0  0
    1.4600    8.2840   20.4230 N   0  0  0  0  0  0  0  0  0  0  0  0
    1.7580    8.1930   19.0730 C   0  0  0  0  0  0  0  0  0  0  0  0
    1.3560    8.9480   18.2010 O   0  0  0  0  0  0  0  0  0  0  0  0
    1.9330    7.5830   20.9920 H   0  0  0  0  0  0  0  0  0  0  0  0
    2.6940    7.0420   18.7800 C   0  0  0  0  0  0  0  0  0  0  0  0
    3.5660    7.3140   17.7460 N   0  0  0  0  0  0  0  0  0  0  0  0
    4.4350    6.3600   17.3730 C   0  0  0  0  0  0  0  0  0  0  0  0
    5.3160    6.6100   16.3310 C   0  0  0  0  0  0  0  0  0  0  0  0
    6.2330    5.6470   15.8990 C   0  0  0  0  0  0  0  0  0  0  0  0
    6.2760    4.4040   16.5210 C   0  0  0  0  0  0  0  0  0  0  0  0
    5.4040    4.1290   17.5740 C   0  0  0  0  0  0  0  0  0  0  0  0
    4.4820    5.1010   18.0040 C   0  0  0  0  0  0  0  0  0  0  0  0
    3.5880    4.8520   19.0550 C   0  0  0  0  0  0  0  0  0  0  0  0
    2.6740    5.8280   19.4590 C   0  0  0  0  0  0  0  0  0  0  0  0
    1.6160    5.4220   20.7570 Cl  0  0  0  0  0  0  0  0  0  0  0  0
    5.2910    7.5770   15.8340 H   0  0  0  0  0  0  0  0  0  0  0  0
    6.9110    5.8710   15.0770 H   0  0  0  0  0  0  0  0  0  0  0  0
    6.9870    3.6520   16.1880 H   0  0  0  0  0  0  0  0  0  0  0  0
    5.4450    3.1520   18.0500 H   0  0  0  0  0  0  0  0  0  0  0  0
    3.5990    3.8860   19.5620 H   0  0  0  0  0  0  0  0  0  0  0  0
   -1.0230   12.5520   20.0950 C   0  0  1  0  0  0  0  0  0  0  0  0
   -0.7260   12.3870   19.0510 H   0  0  0  0  0  0  0  0  0  0  0  0
   -2.5640   12.6930   20.1390 C   0  0  0  0  0  0  0  0  0  0  0  0
   -2.8660   13.7420   20.0270 H   0  0  0  0  0  0  0  0  0  0  0  0
   -2.9200   12.3830   21.1310 H   0  0  0  0  0  0  0  0  0  0  0  0
   -3.2750   11.8780   19.0890 C   0  0  0  0  0  0  0  0  0  0  0  0
   -2.7430   11.5460   17.9060 C   0  0  0  0  0  0  0  0  0  0  0  0
   -4.2830   11.5350   19.3220 H   0  0  0  0  0  0  0  0  0  0  0  0
   -3.3110   10.9540   17.1930 H   0  0  0  0  0  0  0  0  0  0  0  0
   -1.7430   11.8580   17.6150 H   0  0  0  0  0  0  0  0  0  0  0  0
   -0.1880   14.0820   20.7110 S   0  0  0  0  0  0  0  0  0  0  0  0
    2.4760   14.4760   20.2410 N   0  0  0  0  0  0  0  0  0  0  0  0
    3.3530   14.2350   19.2260 C   0  0  0  0  0  0  0  0  0  0  0  0
    2.7080   13.7380   18.1930 N   0  0  0  0  0  0  0  0  0  0  0  0
    1.3840   13.6130   18.5500 N   0  0  0  0  0  0  0  0  0  0  0  0
    1.2670   14.0320   19.7900 C   0  0  0  0  0  0  0  0  0  0  0  0
    4.4160   14.4330   19.2770 H   0  0  0  0  0  0  0  0  0  0  0  0
    2.8070   15.0260   21.5280 C   0  0  0  0  0  0  0  0  0  0  0  0
    2.0110   15.7020   21.8530 H   0  0  0  0  0  0  0  0  0  0  0  0
    3.7450   15.5800   21.4370 H   0  0  0  0  0  0  0  0  0  0  0  0
    2.9060   14.2180   22.2580 H   0  0  0  0  0  0  0  0  0  0  0  0
  1  6  1  0  0  0  0
  2  1  2  0  0  0  0
  2  3  1  0  0  0  0
  3  4  2  0  0  0  0
  4  5  1  0  0  0  0
  4  8  1  0  0  0  0
  5  9  1  0  0  0  0
  6 10  1  0  0  0  0
  6  5  2  0  0  0  0
  7  2  1  0  0  0  0
 11 14  1  0  0  0  0
 11  3  1  0  0  0  0
 12 11  1  0  0  0  0
 13 12  2  0  0  0  0
 15 12  1  0  0  0  0
 15 24  1  0  0  0  0
 16 15  2  0  0  0  0
 17 16  1  0  0  0  0
 17 22  1  0  0  0  0
 18 17  2  0  0  0  0
 19 18  1  0  0  0  0
 19 20  2  0  0  0  0
 20 21  1  0  0  0  0
 21 22  2  0  0  0  0
 21 29  1  0  0  0  0
 22 23  1  0  0  0  0
 23 24  2  0  0  0  0
 23 30  1  0  0  0  0
 24 25  1  0  0  0  0
 26 18  1  0  0  0  0
 27 19  1  0  0  0  0
 28 20  1  0  0  0  0
 31 32  1  6  0  0  0
 31 33  1  0  0  0  0
 31 41  1  0  0  0  0
 31  1  1  0  0  0  0
 33 35  1  0  0  0  0
 34 33  1  0  0  0  0
 36 38  1  0  0  0  0
 36 33  1  0  0  0  0
 37 36  2  0  0  0  0
 39 37  1  0  0  0  0
 40 37  1  0  0  0  0
 42 48  1  0  0  0  0
 43 47  1  0  0  0  0
 43 42  1  0  0  0  0
 44 45  1  0  0  0  0
 44 43  2  0  0  0  0
 45 46  2  0  0  0  0
 46 42  1  0  0  0  0
 46 41  1  0  0  0  0
 48 49  1  0  0  0  0
 48 51  1  0  0  0  0
 50 48  1  0  0  0  0
M  END
>  <MODEL>
29

>  <REMARK>
 VINA RESULT:    -7.204      2.688      3.996
 INTER + INTRA:         -10.868
 INTER:                 -10.529
 INTRA:                  -0.339
 UNBOUND:                -0.506
  Name = 
  8 active torsions:
  status: ('A' for Active; 'I' for Inactive)
    1  A    between atoms: C_1  and  N_2
    2  A    between atoms: C_6  and  S_7
    3  A    between atoms: S_7  and  C_8
    4  A    between atoms: C_8  and  C_9
    5  A    between atoms: C_8  and  C_12
    6  A    between atoms: C_9  and  C_10
    7  A    between atoms: C_14  and  N_18
    8  A    between atoms: C_19  and  C_21
                            x       y       z     vdW  Elec       q    Type
                         _______ _______ _______ _____ _____    ______ ____

>  <TORSDO>
F 8

$$$$
=
 OpenBabel07192307433D

 51 54  0  0  1  0  0  0  0  0999 V2000
    3.0920    5.4820   19.2320 C   0  0  0  0  0  0  0  0  0  0  0  0
    2.7260    6.8400   19.3010 C   0  0  0  0  0  0  0  0  0  0  0  0
    1.8120    7.3040   20.2580 C   0  0  0  0  0  0  0  0  0  0  0  0
    1.2370    6.3930   21.1400 C   0  0  0  0  0  0  0  0  0  0  0  0
    1.5760    5.0380   21.0750 C   0  0  0  0  0  0  0  0  0  0  0  0
    2.4970    4.5850   20.1290 C   0  0  0  0  0  0  0  0  0  0  0  0
    3.1850    7.5510   18.6170 H   0  0  0  0  0  0  0  0  0  0  0  0
    0.5160    6.7040   21.8910 H   0  0  0  0  0  0  0  0  0  0  0  0
    1.1170    4.3390   21.7700 H   0  0  0  0  0  0  0  0  0  0  0  0
    2.7460    3.5260   20.1030 H   0  0  0  0  0  0  0  0  0  0  0  0
    1.5460    8.6820   20.2680 N   0  0  0  0  0  0  0  0  0  0  0  0
    0.4150    9.3460   20.7150 C   0  0  0  0  0  0  0  0  0  0  0  0
   -0.5880    8.8200   21.1720 O   0  0  0  0  0  0  0  0  0  0  0  0
    2.2910    9.3080   19.9660 H   0  0  0  0  0  0  0  0  0  0  0  0
    0.5650   10.8470   20.6080 C   0  0  0  0  0  0  0  0  0  0  0  0
    1.3410   11.2300   19.5330 N   0  0  0  0  0  0  0  0  0  0  0  0
    1.5690   12.5390   19.3410 C   0  0  0  0  0  0  0  0  0  0  0  0
    2.3530   12.9450   18.2710 C   0  0  0  0  0  0  0  0  0  0  0  0
    2.6280   14.2960   18.0340 C   0  0  0  0  0  0  0  0  0  0  0  0
    2.1070   15.2670   18.8820 C   0  0  0  0  0  0  0  0  0  0  0  0
    1.3130   14.8850   19.9630 C   0  0  0  0  0  0  0  0  0  0  0  0
    1.0400   13.5260   20.1980 C   0  0  0  0  0  0  0  0  0  0  0  0
    0.2510   13.1100   21.2800 C   0  0  0  0  0  0  0  0  0  0  0  0
    0.0010   11.7530   21.5010 C   0  0  0  0  0  0  0  0  0  0  0  0
   -0.9780   11.3470   22.8590 Cl  0  0  0  0  0  0  0  0  0  0  0  0
    2.7690   12.1960   17.6020 H   0  0  0  0  0  0  0  0  0  0  0  0
    3.2490   14.5840   17.1880 H   0  0  0  0  0  0  0  0  0  0  0  0
    2.3190   16.3180   18.7020 H   0  0  0  0  0  0  0  0  0  0  0  0
    0.9140   15.6540   20.6210 H   0  0  0  0  0  0  0  0  0  0  0  0
   -0.1720   13.8500   21.9610 H   0  0  0  0  0  0  0  0  0  0  0  0
    4.1390    4.9890   18.2370 C   0  0  1  0  0  0  0  0  0  0  0  0
    4.9600    4.5340   18.8060 H   0  0  0  0  0  0  0  0  0  0  0  0
    3.5680    3.9170   17.2790 C   0  0  0  0  0  0  0  0  0  0  0  0
    3.9190    4.0790   16.2520 H   0  0  0  0  0  0  0  0  0  0  0  0
    2.4740    4.0210   17.2410 H   0  0  0  0  0  0  0  0  0  0  0  0
    3.9090    2.5050   17.6800 C   0  0  0  0  0  0  0  0  0  0  0  0
    3.0220    1.6230   18.1580 C   0  0  0  0  0  0  0  0  0  0  0  0
    4.9460    2.1890   17.5610 H   0  0  0  0  0  0  0  0  0  0  0  0
    3.3350    0.6180   18.4280 H   0  0  0  0  0  0  0  0  0  0  0  0
    1.9750    1.8770   18.3000 H   0  0  0  0  0  0  0  0  0  0  0  0
    4.8020    6.4420   17.3050 S   0  0  0  0  0  0  0  0  0  0  0  0
    6.8980    4.9680   16.3530 N   0  0  0  0  0  0  0  0  0  0  0  0
    7.2940    4.4660   15.1500 C   0  0  0  0  0  0  0  0  0  0  0  0
    6.4640    4.8620   14.2100 N   0  0  0  0  0  0  0  0  0  0  0  0
    5.4780    5.6080   14.8140 N   0  0  0  0  0  0  0  0  0  0  0  0
    5.7360    5.6380   16.1020 C   0  0  0  0  0  0  0  0  0  0  0  0
    8.1660    3.8410   15.0060 H   0  0  0  0  0  0  0  0  0  0  0  0
    7.5580    4.7580   17.6130 C   0  0  0  0  0  0  0  0  0  0  0  0
    7.2850    3.7750   18.0100 H   0  0  0  0  0  0  0  0  0  0  0  0
    7.2350    5.5370   18.3070 H   0  0  0  0  0  0  0  0  0  0  0  0
    8.6420    4.7930   17.4700 H   0  0  0  0  0  0  0  0  0  0  0  0
  1  2  2  0  0  0  0
  1  6  1  0  0  0  0
  2  3  1  0  0  0  0
  3 11  1  0  0  0  0
  3  4  2  0  0  0  0
  4  8  1  0  0  0  0
  5  4  1  0  0  0  0
  5  9  1  0  0  0  0
  6  5  2  0  0  0  0
  7  2  1  0  0  0  0
 10  6  1  0  0  0  0
 11 12  1  0  0  0  0
 12 13  2  0  0  0  0
 14 11  1  0  0  0  0
 15 12  1  0  0  0  0
 15 24  1  0  0  0  0
 16 15  2  0  0  0  0
 17 16  1  0  0  0  0
 17 22  1  0  0  0  0
 18 17  2  0  0  0  0
 19 18  1  0  0  0  0
 19 20  2  0  0  0  0
 20 21  1  0  0  0  0
 21 22  2  0  0  0  0
 21 29  1  0  0  0  0
 22 23  1  0  0  0  0
 23 24  2  0  0  0  0
 23 30  1  0  0  0  0
 24 25  1  0  0  0  0
 26 18  1  0  0  0  0
 27 19  1  0  0  0  0
 28 20  1  0  0  0  0
 31 32  1  1  0  0  0
 31  1  1  0  0  0  0
 33 36  1  0  0  0  0
 33 31  1  0  0  0  0
 34 33  1  0  0  0  0
 35 33  1  0  0  0  0
 36 37  2  0  0  0  0
 37 40  1  0  0  0  0
 37 39  1  0  0  0  0
 38 36  1  0  0  0  0
 41 31  1  0  0  0  0
 42 48  1  0  0  0  0
 43 42  1  0  0  0  0
 44 45  1  0  0  0  0
 44 43  2  0  0  0  0
 45 46  2  0  0  0  0
 46 42  1  0  0  0  0
 46 41  1  0  0  0  0
 47 43  1  0  0  0  0
 48 49  1  0  0  0  0
 48 50  1  0  0  0  0
 51 48  1  0  0  0  0
M  END
>  <MODEL>
30

>  <REMARK>
 VINA RESULT:    -7.186      3.682      9.012
 INTER + INTRA:         -10.843
 INTER:                 -10.317
 INTRA:                  -0.526
 UNBOUND:                -0.506
  Name = 
  8 active torsions:
  status: ('A' for Active; 'I' for Inactive)
    1  A    between atoms: C_1  and  N_2
    2  A    between atoms: C_6  and  S_7
    3  A    between atoms: S_7  and  C_8
    4  A    between atoms: C_8  and  C_9
    5  A    between atoms: C_8  and  C_12
    6  A    between atoms: C_9  and  C_10
    7  A    between atoms: C_14  and  N_18
    8  A    between atoms: C_19  and  C_21
                            x       y       z     vdW  Elec       q    Type
                         _______ _______ _______ _____ _____    ______ ____

>  <TORSDO>
F 8

$$$$
=
 OpenBabel07192307433D

 51 54  0  0  1  0  0  0  0  0999 V2000
    0.0810   11.2580   19.7020 C   0  0  0  0  0  0  0  0  0  0  0  0
    0.4880    9.9360   19.4380 C   0  0  0  0  0  0  0  0  0  0  0  0
    1.6270    9.6620   18.6680 C   0  0  0  0  0  0  0  0  0  0  0  0
    2.3540   10.7230   18.1330 C   0  0  0  0  0  0  0  0  0  0  0  0
    1.9540   12.0410   18.3710 C   0  0  0  0  0  0  0  0  0  0  0  0
    0.8270   12.3080   19.1500 C   0  0  0  0  0  0  0  0  0  0  0  0
   -0.0750    9.1100   19.8660 H   0  0  0  0  0  0  0  0  0  0  0  0
    3.2360   10.5590   17.5220 H   0  0  0  0  0  0  0  0  0  0  0  0
    2.5310   12.8590   17.9450 H   0  0  0  0  0  0  0  0  0  0  0  0
    0.5410   13.3440   19.3220 H   0  0  0  0  0  0  0  0  0  0  0  0
    1.9710    8.3110   18.4980 N   0  0  0  0  0  0  0  0  0  0  0  0
    3.1050    7.7680   17.9150 C   0  0  0  0  0  0  0  0  0  0  0  0
    4.0200    8.4000   17.4120 O   0  0  0  0  0  0  0  0  0  0  0  0
    1.3470    7.6130   18.9010 H   0  0  0  0  0  0  0  0  0  0  0  0
    3.1110    6.2580   17.9970 C   0  0  0  0  0  0  0  0  0  0  0  0
    2.2470    5.7730   18.9570 N   0  0  0  0  0  0  0  0  0  0  0  0
    2.1780    4.4450   19.1440 C   0  0  0  0  0  0  0  0  0  0  0  0
    1.3210    3.9360   20.1100 C   0  0  0  0  0  0  0  0  0  0  0  0
    1.2200    2.5620   20.3490 C   0  0  0  0  0  0  0  0  0  0  0  0
    1.9880    1.6720   19.6080 C   0  0  0  0  0  0  0  0  0  0  0  0
    2.8540    2.1570   18.6290 C   0  0  0  0  0  0  0  0  0  0  0  0
    2.9540    3.5400   18.3920 C   0  0  0  0  0  0  0  0  0  0  0  0
    3.8200    4.0590   17.4190 C   0  0  0  0  0  0  0  0  0  0  0  0
    3.9110    5.4370   17.2080 C   0  0  0  0  0  0  0  0  0  0  0  0
    5.0070    5.9740   15.9920 Cl  0  0  0  0  0  0  0  0  0  0  0  0
    0.7170    4.6220   20.6990 H   0  0  0  0  0  0  0  0  0  0  0  0
    0.5400    2.1930   21.1160 H   0  0  0  0  0  0  0  0  0  0  0  0
    1.9130    0.6030   19.7920 H   0  0  0  0  0  0  0  0  0  0  0  0
    3.4520    1.4510   18.0570 H   0  0  0  0  0  0  0  0  0  0  0  0
    4.4340    3.3850   16.8220 H   0  0  0  0  0  0  0  0  0  0  0  0
   -1.1180   11.5590   20.5970 C   0  0  1  0  0  0  0  0  0  0  0  0
   -1.7510   10.6630   20.6280 H   0  0  0  0  0  0  0  0  0  0  0  0
   -0.6900   11.8950   22.0450 C   0  0  0  0  0  0  0  0  0  0  0  0
   -1.1790   12.8110   22.3980 H   0  0  0  0  0  0  0  0  0  0  0  0
    0.3880   12.1070   22.0570 H   0  0  0  0  0  0  0  0  0  0  0  0
   -0.9790   10.7920   23.0320 C   0  0  0  0  0  0  0  0  0  0  0  0
   -0.2840    9.6500   23.1090 C   0  0  0  0  0  0  0  0  0  0  0  0
   -1.8040   10.9480   23.7270 H   0  0  0  0  0  0  0  0  0  0  0  0
   -0.5450    8.8950   23.8460 H   0  0  0  0  0  0  0  0  0  0  0  0
    0.5480    9.4340   22.4440 H   0  0  0  0  0  0  0  0  0  0  0  0
   -2.0880   12.9400   19.8430 S   0  0  0  0  0  0  0  0  0  0  0  0
   -3.0900   11.4720   17.7660 N   0  0  0  0  0  0  0  0  0  0  0  0
   -4.2650   10.8500   17.4650 C   0  0  0  0  0  0  0  0  0  0  0  0
   -5.1470   11.0860   18.4110 N   0  0  0  0  0  0  0  0  0  0  0  0
   -4.5270   11.8480   19.3760 N   0  0  0  0  0  0  0  0  0  0  0  0
   -3.2870   12.0460   18.9890 C   0  0  0  0  0  0  0  0  0  0  0  0
   -4.4320   10.2590   16.5740 H   0  0  0  0  0  0  0  0  0  0  0  0
   -1.8960   11.4510   16.9670 C   0  0  0  0  0  0  0  0  0  0  0  0
   -1.3640   12.4010   17.0760 H   0  0  0  0  0  0  0  0  0  0  0  0
   -2.1810   11.3090   15.9210 H   0  0  0  0  0  0  0  0  0  0  0  0
   -1.2440   10.6390   17.3020 H   0  0  0  0  0  0  0  0  0  0  0  0
  1 31  1  0  0  0  0
  2  1  1  0  0  0  0
  2  7  1  0  0  0  0
  3  2  2  0  0  0  0
  4  5  2  0  0  0  0
  4  3  1  0  0  0  0
  5  6  1  0  0  0  0
  6 10  1  0  0  0  0
  6  1  2  0  0  0  0
  8  4  1  0  0  0  0
  9  5  1  0  0  0  0
 11  3  1  0  0  0  0
 11 14  1  0  0  0  0
 12 15  1  0  0  0  0
 12 11  1  0  0  0  0
 13 12  2  0  0  0  0
 15 16  1  0  0  0  0
 16 17  2  0  0  0  0
 17 18  1  0  0  0  0
 18 19  2  0  0  0  0
 18 26  1  0  0  0  0
 19 27  1  0  0  0  0
 20 28  1  0  0  0  0
 20 19  1  0  0  0  0
 21 20  2  0  0  0  0
 22 21  1  0  0  0  0
 22 17  1  0  0  0  0
 23 22  2  0  0  0  0
 24 23  1  0  0  0  0
 24 15  2  0  0  0  0
 25 24  1  0  0  0  0
 29 21  1  0  0  0  0
 30 23  1  0  0  0  0
 31 32  1  1  0  0  0
 31 33  1  0  0  0  0
 33 35  1  0  0  0  0
 33 34  1  0  0  0  0
 33 36  1  0  0  0  0
 36 37  2  0  0  0  0
 36 38  1  0  0  0  0
 37 39  1  0  0  0  0
 40 37  1  0  0  0  0
 41 31  1  0  0  0  0
 42 46  1  0  0  0  0
 43 42  1  0  0  0  0
 43 44  2  0  0  0  0
 44 45  1  0  0  0  0
 46 45  2  0  0  0  0
 46 41  1  0  0  0  0
 47 43  1  0  0  0  0
 48 49  1  0  0  0  0
 48 51  1  0  0  0  0
 48 42  1  0  0  0  0
 50 48  1  0  0  0  0
M  END
>  <MODEL>
31

>  <REMARK>
 VINA RESULT:    -7.141      2.148      3.657
 INTER + INTRA:         -10.778
 INTER:                 -10.253
 INTRA:                  -0.524
 UNBOUND:                -0.506
  Name = 
  8 active torsions:
  status: ('A' for Active; 'I' for Inactive)
    1  A    between atoms: C_1  and  N_2
    2  A    between atoms: C_6  and  S_7
    3  A    between atoms: S_7  and  C_8
    4  A    between atoms: C_8  and  C_9
    5  A    between atoms: C_8  and  C_12
    6  A    between atoms: C_9  and  C_10
    7  A    between atoms: C_14  and  N_18
    8  A    between atoms: C_19  and  C_21
                            x       y       z     vdW  Elec       q    Type
                         _______ _______ _______ _____ _____    ______ ____

>  <TORSDO>
F 8

$$$$
=
 OpenBabel07192307433D

 51 54  0  0  1  0  0  0  0  0999 V2000
   -0.2230   12.3540   18.7290 C   0  0  0  0  0  0  0  0  0  0  0  0
    0.0280   10.9760   18.8760 C   0  0  0  0  0  0  0  0  0  0  0  0
    1.3080   10.4400   18.6820 C   0  0  0  0  0  0  0  0  0  0  0  0
    2.3470   11.2900   18.3090 C   0  0  0  0  0  0  0  0  0  0  0  0
    2.1130   12.6580   18.1430 C   0  0  0  0  0  0  0  0  0  0  0  0
    0.8380   13.1870   18.3520 C   0  0  0  0  0  0  0  0  0  0  0  0
   -0.7840   10.3160   19.1770 H   0  0  0  0  0  0  0  0  0  0  0  0
    3.3530   10.9180   18.1370 H   0  0  0  0  0  0  0  0  0  0  0  0
    2.9340   13.3080   17.8500 H   0  0  0  0  0  0  0  0  0  0  0  0
    0.6850   14.2570   18.2180 H   0  0  0  0  0  0  0  0  0  0  0  0
    1.4600    9.0600   18.8930 N   0  0  0  0  0  0  0  0  0  0  0  0
    2.3150    8.1720   18.2600 C   0  0  0  0  0  0  0  0  0  0  0  0
    3.0940    8.4500   17.3610 O   0  0  0  0  0  0  0  0  0  0  0  0
    0.9230    8.6380   19.6490 H   0  0  0  0  0  0  0  0  0  0  0  0
    2.2070    6.7790   18.8370 C   0  0  0  0  0  0  0  0  0  0  0  0
    2.4900    5.7950   17.9120 N   0  0  0  0  0  0  0  0  0  0  0  0
    2.4060    4.5110   18.2960 C   0  0  0  0  0  0  0  0  0  0  0  0
    2.6790    3.5060   17.3790 C   0  0  0  0  0  0  0  0  0  0  0  0
    2.5960    2.1540   17.7280 C   0  0  0  0  0  0  0  0  0  0  0  0
    2.2360    1.7930   19.0210 C   0  0  0  0  0  0  0  0  0  0  0  0
    1.9610    2.7840   19.9620 C   0  0  0  0  0  0  0  0  0  0  0  0
    2.0440    4.1430   19.6080 C   0  0  0  0  0  0  0  0  0  0  0  0
    1.7670    5.1620   20.5290 C   0  0  0  0  0  0  0  0  0  0  0  0
    1.8450    6.5050   20.1520 C   0  0  0  0  0  0  0  0  0  0  0  0
    1.4820    7.6810   21.3590 Cl  0  0  0  0  0  0  0  0  0  0  0  0
    2.9580    3.7740   16.3640 H   0  0  0  0  0  0  0  0  0  0  0  0
    2.8130    1.3870   16.9860 H   0  0  0  0  0  0  0  0  0  0  0  0
    2.1700    0.7430   19.2960 H   0  0  0  0  0  0  0  0  0  0  0  0
    1.6770    2.4890   20.9700 H   0  0  0  0  0  0  0  0  0  0  0  0
    1.4830    4.9090   21.5520 H   0  0  0  0  0  0  0  0  0  0  0  0
   -1.6000   12.9470   19.0090 C   0  0  1  0  0  0  0  0  0  0  0  0
   -1.8980   13.5410   18.1350 H   0  0  0  0  0  0  0  0  0  0  0  0
   -2.6700   11.8520   19.2320 C   0  0  0  0  0  0  0  0  0  0  0  0
   -3.3770   12.1450   20.0170 H   0  0  0  0  0  0  0  0  0  0  0  0
   -2.1750   10.9420   19.6000 H   0  0  0  0  0  0  0  0  0  0  0  0
   -3.4530   11.5110   17.9890 C   0  0  0  0  0  0  0  0  0  0  0  0
   -3.3890   10.3320   17.3590 C   0  0  0  0  0  0  0  0  0  0  0  0
   -4.1180   12.2790   17.5930 H   0  0  0  0  0  0  0  0  0  0  0  0
   -3.9830   10.1510   16.4670 H   0  0  0  0  0  0  0  0  0  0  0  0
   -2.7450    9.5270   17.7040 H   0  0  0  0  0  0  0  0  0  0  0  0
   -1.4740   14.0730   20.4700 S   0  0  0  0  0  0  0  0  0  0  0  0
   -2.8550   12.8470   22.4860 N   0  0  0  0  0  0  0  0  0  0  0  0
   -2.6360   11.8290   23.3650 C   0  0  0  0  0  0  0  0  0  0  0  0
   -1.4090   11.3770   23.2220 N   0  0  0  0  0  0  0  0  0  0  0  0
   -0.8210   12.0890   22.2010 N   0  0  0  0  0  0  0  0  0  0  0  0
   -1.7100   12.9460   21.7510 C   0  0  0  0  0  0  0  0  0  0  0  0
   -3.3700   11.4620   24.0700 H   0  0  0  0  0  0  0  0  0  0  0  0
   -4.0760   13.5950   22.3500 C   0  0  0  0  0  0  0  0  0  0  0  0
   -4.5430   13.7140   23.3320 H   0  0  0  0  0  0  0  0  0  0  0  0
   -4.7480   13.0430   21.6880 H   0  0  0  0  0  0  0  0  0  0  0  0
   -3.8570   14.5850   21.9390 H   0  0  0  0  0  0  0  0  0  0  0  0
  1  2  1  0  0  0  0
  1 31  1  0  0  0  0
  2  7  1  0  0  0  0
  3  2  2  0  0  0  0
  3 11  1  0  0  0  0
  4  3  1  0  0  0  0
  5  4  2  0  0  0  0
  5  6  1  0  0  0  0
  6  1  2  0  0  0  0
  8  4  1  0  0  0  0
  9  5  1  0  0  0  0
 10  6  1  0  0  0  0
 11 14  1  0  0  0  0
 12 15  1  0  0  0  0
 12 11  1  0  0  0  0
 13 12  2  0  0  0  0
 15 24  1  0  0  0  0
 16 17  1  0  0  0  0
 16 15  2  0  0  0  0
 17 22  1  0  0  0  0
 18 19  1  0  0  0  0
 18 17  2  0  0  0  0
 19 20  2  0  0  0  0
 20 28  1  0  0  0  0
 20 21  1  0  0  0  0
 21 29  1  0  0  0  0
 22 21  2  0  0  0  0
 22 23  1  0  0  0  0
 23 30  1  0  0  0  0
 24 23  2  0  0  0  0
 24 25  1  0  0  0  0
 26 18  1  0  0  0  0
 27 19  1  0  0  0  0
 31 32  1  6  0  0  0
 31 33  1  0  0  0  0
 31 41  1  0  0  0  0
 33 35  1  0  0  0  0
 33 34  1  0  0  0  0
 36 33  1  0  0  0  0
 37 40  1  0  0  0  0
 37 36  2  0  0  0  0
 38 36  1  0  0  0  0
 39 37  1  0  0  0  0
 41 46  1  0  0  0  0
 42 43  1  0  0  0  0
 43 47  1  0  0  0  0
 44 43  2  0  0  0  0
 45 44  1  0  0  0  0
 46 45  2  0  0  0  0
 46 42  1  0  0  0  0
 48 42  1  0  0  0  0
 48 49  1  0  0  0  0
 50 48  1  0  0  0  0
 51 48  1  0  0  0  0
M  END
>  <MODEL>
32

>  <REMARK>
 VINA RESULT:    -7.103      3.133      4.607
 INTER + INTRA:         -10.723
 INTER:                 -10.218
 INTRA:                  -0.506
 UNBOUND:                -0.506
  Name = 
  8 active torsions:
  status: ('A' for Active; 'I' for Inactive)
    1  A    between atoms: C_1  and  N_2
    2  A    between atoms: C_6  and  S_7
    3  A    between atoms: S_7  and  C_8
    4  A    between atoms: C_8  and  C_9
    5  A    between atoms: C_8  and  C_12
    6  A    between atoms: C_9  and  C_10
    7  A    between atoms: C_14  and  N_18
    8  A    between atoms: C_19  and  C_21
                            x       y       z     vdW  Elec       q    Type
                         _______ _______ _______ _____ _____    ______ ____

>  <TORSDO>
F 8

$$$$
=
 OpenBabel07192307433D

 51 54  0  0  1  0  0  0  0  0999 V2000
   -0.3090   11.7120   18.7620 C   0  0  0  0  0  0  0  0  0  0  0  0
    0.1920   10.4010   18.6470 C   0  0  0  0  0  0  0  0  0  0  0  0
    1.5340   10.1560   18.3250 C   0  0  0  0  0  0  0  0  0  0  0  0
    2.3810   11.2370   18.0890 C   0  0  0  0  0  0  0  0  0  0  0  0
    1.8960   12.5450   18.1820 C   0  0  0  0  0  0  0  0  0  0  0  0
    0.5620   12.7820   18.5160 C   0  0  0  0  0  0  0  0  0  0  0  0
   -0.4690    9.5590   18.8430 H   0  0  0  0  0  0  0  0  0  0  0  0
    3.4250   11.0960   17.8260 H   0  0  0  0  0  0  0  0  0  0  0  0
    2.5690   13.3780   17.9930 H   0  0  0  0  0  0  0  0  0  0  0  0
    0.2130   13.8110   18.5850 H   0  0  0  0  0  0  0  0  0  0  0  0
    1.9430    8.8140   18.2760 N   0  0  0  0  0  0  0  0  0  0  0  0
    2.1160    7.9180   19.3190 C   0  0  0  0  0  0  0  0  0  0  0  0
    1.9570    8.1640   20.5050 O   0  0  0  0  0  0  0  0  0  0  0  0
    2.0820    8.3980   17.3560 H   0  0  0  0  0  0  0  0  0  0  0  0
    2.5040    6.5440   18.8220 C   0  0  0  0  0  0  0  0  0  0  0  0
    1.7670    5.5360   19.4110 N   0  0  0  0  0  0  0  0  0  0  0  0
    2.0330    4.2650   19.0690 C   0  0  0  0  0  0  0  0  0  0  0  0
    1.3090    3.2360   19.6560 C   0  0  0  0  0  0  0  0  0  0  0  0
    1.5540    1.8960   19.3410 C   0  0  0  0  0  0  0  0  0  0  0  0
    2.5420    1.5710   18.4190 C   0  0  0  0  0  0  0  0  0  0  0  0
    3.2810    2.5860   17.8120 C   0  0  0  0  0  0  0  0  0  0  0  0
    3.0320    3.9330   18.1330 C   0  0  0  0  0  0  0  0  0  0  0  0
    3.7630    4.9760   17.5460 C   0  0  0  0  0  0  0  0  0  0  0  0
    3.5050    6.3060   17.8860 C   0  0  0  0  0  0  0  0  0  0  0  0
    4.4610    7.5130   17.1110 Cl  0  0  0  0  0  0  0  0  0  0  0  0
    0.5360    3.4760   20.3810 H   0  0  0  0  0  0  0  0  0  0  0  0
    0.9720    1.1100   19.8190 H   0  0  0  0  0  0  0  0  0  0  0  0
    2.7370    0.5300   18.1720 H   0  0  0  0  0  0  0  0  0  0  0  0
    4.0540    2.3190   17.0950 H   0  0  0  0  0  0  0  0  0  0  0  0
    4.5430    4.7510   16.8180 H   0  0  0  0  0  0  0  0  0  0  0  0
   -1.7510   11.9800   19.1800 C   0  0  1  0  0  0  0  0  0  0  0  0
   -2.0270   12.9810   18.8250 H   0  0  0  0  0  0  0  0  0  0  0  0
   -2.7350   10.9610   18.5560 C   0  0  0  0  0  0  0  0  0  0  0  0
   -3.6000   10.7970   19.2110 H   0  0  0  0  0  0  0  0  0  0  0  0
   -2.2320    9.9870   18.4750 H   0  0  0  0  0  0  0  0  0  0  0  0
   -3.2390   11.3650   17.1940 C   0  0  0  0  0  0  0  0  0  0  0  0
   -2.8070   10.8320   16.0440 C   0  0  0  0  0  0  0  0  0  0  0  0
   -4.0110   12.1330   17.1560 H   0  0  0  0  0  0  0  0  0  0  0  0
   -3.2150   11.1690   15.0940 H   0  0  0  0  0  0  0  0  0  0  0  0
   -2.0400   10.0630   16.0160 H   0  0  0  0  0  0  0  0  0  0  0  0
   -1.8450   11.9630   21.0270 S   0  0  0  0  0  0  0  0  0  0  0  0
   -3.9440   12.9520   22.4720 N   0  0  0  0  0  0  0  0  0  0  0  0
   -5.0310   13.7400   22.2340 C   0  0  0  0  0  0  0  0  0  0  0  0
   -5.0920   14.0360   20.9540 N   0  0  0  0  0  0  0  0  0  0  0  0
   -4.0000   13.4630   20.3430 N   0  0  0  0  0  0  0  0  0  0  0  0
   -3.3060   12.8410   21.2700 C   0  0  0  0  0  0  0  0  0  0  0  0
   -5.7320   14.0600   22.9940 H   0  0  0  0  0  0  0  0  0  0  0  0
   -3.5510   12.4210   23.7490 C   0  0  0  0  0  0  0  0  0  0  0  0
   -3.4480   11.3350   23.6770 H   0  0  0  0  0  0  0  0  0  0  0  0
   -4.3250   12.6690   24.4790 H   0  0  0  0  0  0  0  0  0  0  0  0
   -2.5900   12.8510   24.0450 H   0  0  0  0  0  0  0  0  0  0  0  0
  1 31  1  0  0  0  0
  2  1  1  0  0  0  0
  2  7  1  0  0  0  0
  3  2  2  0  0  0  0
  4  5  2  0  0  0  0
  4  3  1  0  0  0  0
  5  6  1  0  0  0  0
  6 10  1  0  0  0  0
  6  1  2  0  0  0  0
  8  4  1  0  0  0  0
  9  5  1  0  0  0  0
 11  3  1  0  0  0  0
 11 12  1  0  0  0  0
 12 13  2  0  0  0  0
 14 11  1  0  0  0  0
 15 12  1  0  0  0  0
 15 16  1  0  0  0  0
 17 16  2  0  0  0  0
 17 18  1  0  0  0  0
 18 26  1  0  0  0  0
 19 18  2  0  0  0  0
 19 27  1  0  0  0  0
 20 19  1  0  0  0  0
 21 22  1  0  0  0  0
 21 20  2  0  0  0  0
 22 17  1  0  0  0  0
 23 24  1  0  0  0  0
 23 22  2  0  0  0  0
 24 15  2  0  0  0  0
 25 24  1  0  0  0  0
 28 20  1  0  0  0  0
 29 21  1  0  0  0  0
 30 23  1  0  0  0  0
 31 32  1  6  0  0  0
 31 41  1  0  0  0  0
 33 31  1  0  0  0  0
 33 34  1  0  0  0  0
 35 33  1  0  0  0  0
 36 33  1  0  0  0  0
 37 36  2  0  0  0  0
 38 36  1  0  0  0  0
 39 37  1  0  0  0  0
 40 37  1  0  0  0  0
 41 46  1  0  0  0  0
 42 48  1  0  0  0  0
 43 42  1  0  0  0  0
 43 47  1  0  0  0  0
 44 43  2  0  0  0  0
 45 44  1  0  0  0  0
 45 46  2  0  0  0  0
 46 42  1  0  0  0  0
 48 51  1  0  0  0  0
 48 50  1  0  0  0  0
 49 48  1  0  0  0  0
M  END
>  <MODEL>
33

>  <REMARK>
 VINA RESULT:    -7.095      2.522      4.281
 INTER + INTRA:         -10.711
 INTER:                  -9.960
 INTRA:                  -0.751
 UNBOUND:                -0.506
  Name = 
  8 active torsions:
  status: ('A' for Active; 'I' for Inactive)
    1  A    between atoms: C_1  and  N_2
    2  A    between atoms: C_6  and  S_7
    3  A    between atoms: S_7  and  C_8
    4  A    between atoms: C_8  and  C_9
    5  A    between atoms: C_8  and  C_12
    6  A    between atoms: C_9  and  C_10
    7  A    between atoms: C_14  and  N_18
    8  A    between atoms: C_19  and  C_21
                            x       y       z     vdW  Elec       q    Type
                         _______ _______ _______ _____ _____    ______ ____

>  <TORSDO>
F 8

$$$$
