=
 OpenBabel07192307433D

 70 75  0  0  1  0  0  0  0  0999 V2000
    2.7030   12.4880   18.1260 C   0  0  0  0  0  0  0  0  0  0  0  0
    3.0580   11.1390   18.0110 C   0  0  0  0  0  0  0  0  0  0  0  0
    2.1370   10.1650   18.3620 C   0  0  0  0  0  0  0  0  0  0  0  0
    2.3690    8.7980   18.2480 N   0  0  0  0  0  0  0  0  0  0  0  0
    3.4600    8.1350   17.7430 C   0  0  0  0  0  0  0  0  0  0  0  0
    4.4880    8.6340   17.2960 O   0  0  0  0  0  0  0  0  0  0  0  0
    0.9070   10.4590   18.8310 N   0  0  0  0  0  0  0  0  0  0  0  0
    0.5400   11.7640   18.9500 C   0  0  0  0  0  0  0  0  0  0  0  0
    1.4200   12.7910   18.6080 C   0  0  0  0  0  0  0  0  0  0  0  0
    1.1100   14.0820   18.7760 F   0  0  0  0  0  0  0  0  0  0  0  0
    4.0500   10.8630   17.6780 H   0  0  0  0  0  0  0  0  0  0  0  0
    1.5920    8.2200   18.5570 H   0  0  0  0  0  0  0  0  0  0  0  0
   -0.7630   11.9740   19.4530 N   0  0  0  0  0  0  0  0  0  0  0  0
   -0.9530   12.0710   20.8920 C   0  0  0  0  0  0  0  0  0  0  0  0
   -2.4210   12.3220   21.0240 C   0  0  0  0  0  0  0  0  0  0  0  0
   -3.0050   12.3260   19.7610 C   0  0  0  0  0  0  0  0  0  0  0  0
   -4.3600   12.5260   19.5760 C   0  0  0  0  0  0  0  0  0  0  0  0
   -5.1460   12.7310   20.7150 C   0  0  0  0  0  0  0  0  0  0  0  0
   -4.5680   12.7280   21.9970 C   0  0  0  0  0  0  0  0  0  0  0  0
   -3.1870   12.5190   22.1720 C   0  0  0  0  0  0  0  0  0  0  0  0
   -1.9600   12.0730   18.7570 C   0  0  0  0  0  0  0  0  0  0  0  0
   -2.2300   11.9440   17.5770 O   0  0  0  0  0  0  0  0  0  0  0  0
   -0.3750   12.9160   21.2820 H   0  0  0  0  0  0  0  0  0  0  0  0
   -0.6760   11.1270   21.3730 H   0  0  0  0  0  0  0  0  0  0  0  0
   -4.7930   12.5100   18.5800 H   0  0  0  0  0  0  0  0  0  0  0  0
   -6.2180   12.8860   20.6080 H   0  0  0  0  0  0  0  0  0  0  0  0
   -5.2090   12.8810   22.8640 H   0  0  0  0  0  0  0  0  0  0  0  0
   -2.5460   12.4970   23.5330 C   0  0  0  0  0  0  0  0  0  0  0  0
   -1.6060   13.4590   23.7210 F   0  0  0  0  0  0  0  0  0  0  0  0
   -1.9320   11.3050   23.7860 F   0  0  0  0  0  0  0  0  0  0  0  0
   -3.4580   12.6680   24.5270 F   0  0  0  0  0  0  0  0  0  0  0  0
    3.2870    6.6440   17.7500 C   0  0  0  0  0  0  0  0  0  0  0  0
    2.2670    6.0630   18.4920 C   0  0  0  0  0  0  0  0  0  0  0  0
    2.1320    4.6690   18.5190 C   0  0  0  0  0  0  0  0  0  0  0  0
    3.0680    3.9350   17.7720 C   0  0  0  0  0  0  0  0  0  0  0  0
    4.0730    4.5780   17.0380 C   0  0  0  0  0  0  0  0  0  0  0  0
    4.1910    5.9340   17.0240 N   0  0  0  0  0  0  0  0  0  0  0  0
    1.5840    6.6920   19.0580 H   0  0  0  0  0  0  0  0  0  0  0  0
    3.0270    2.8480   17.7730 H   0  0  0  0  0  0  0  0  0  0  0  0
    1.0330    4.0360   19.3500 C   0  0  0  0  0  0  0  0  0  0  0  0
    0.9270    2.5520   19.6000 C   0  0  0  0  0  0  0  0  0  0  0  0
    1.3750    3.4620   20.7050 C   0  0  0  0  0  0  0  0  0  0  0  0
    0.0680    4.5400   19.2810 H   0  0  0  0  0  0  0  0  0  0  0  0
    1.6480    1.8710   19.1700 H   0  0  0  0  0  0  0  0  0  0  0  0
   -0.0680    2.1260   19.6700 H   0  0  0  0  0  0  0  0  0  0  0  0
    2.4120    3.4180   21.0130 H   0  0  0  0  0  0  0  0  0  0  0  0
    0.6860    3.6550   21.5220 H   0  0  0  0  0  0  0  0  0  0  0  0
    5.0960    3.7420   16.2760 C   0  0  0  0  0  0  0  0  0  0  0  0
    4.9140    2.4030   16.4550 F   0  0  0  0  0  0  0  0  0  0  0  0
    6.3810    4.0020   16.6450 F   0  0  0  0  0  0  0  0  0  0  0  0
    5.0550    3.9380   14.9230 F   0  0  0  0  0  0  0  0  0  0  0  0
    3.6510   13.6280   17.7880 C   0  0  2  0  0  0  0  0  0  0  0  0
    3.3790   13.9480   16.7710 H   0  0  0  0  0  0  0  0  0  0  0  0
    5.1290   13.2240   17.6810 C   0  0  0  0  0  0  0  0  0  0  0  0
    5.3970   12.8640   16.6820 H   0  0  0  0  0  0  0  0  0  0  0  0
    5.7810   14.0710   17.9190 H   0  0  0  0  0  0  0  0  0  0  0  0
    5.3600   12.4240   18.3920 H   0  0  0  0  0  0  0  0  0  0  0  0
    3.4560   14.8650   18.6950 C   0  0  0  0  0  0  0  0  0  0  0  0
    3.6970   15.7660   18.1190 H   0  0  0  0  0  0  0  0  0  0  0  0
    2.3980   14.9670   18.9720 H   0  0  0  0  0  0  0  0  0  0  0  0
    4.2560   14.8320   19.9590 C   0  0  0  0  0  0  0  0  0  0  0  0
    5.5680   14.9340   20.0550 N   0  0  0  0  0  0  0  0  0  0  0  0
    5.9170   14.8310   21.3820 N   0  0  0  0  0  0  0  0  0  0  0  0
    4.8130   14.6520   22.0670 C   0  0  0  0  0  0  0  0  0  0  0  0
    3.7460   14.6480   21.2190 N   0  0  0  0  0  0  0  0  0  0  0  0
    4.7450   14.5200   23.1380 H   0  0  0  0  0  0  0  0  0  0  0  0
    2.3720   14.4570   21.5950 C   0  0  0  0  0  0  0  0  0  0  0  0
    2.0290   15.3410   22.1370 H   0  0  0  0  0  0  0  0  0  0  0  0
    2.2860   13.5800   22.2420 H   0  0  0  0  0  0  0  0  0  0  0  0
    1.7840   14.3000   20.6890 H   0  0  0  0  0  0  0  0  0  0  0  0
  1  9  1  0  0  0  0
  2  1  2  0  0  0  0
  2  3  1  0  0  0  0
  3  7  2  0  0  0  0
  4  3  1  0  0  0  0
  4 12  1  0  0  0  0
  5 32  1  0  0  0  0
  5  4  1  0  0  0  0
  6  5  2  0  0  0  0
  7  8  1  0  0  0  0
  8 13  1  0  0  0  0
  9 10  1  0  0  0  0
  9  8  2  0  0  0  0
 11  2  1  0  0  0  0
 13 14  1  0  0  0  0
 14 15  1  0  0  0  0
 14 23  1  0  0  0  0
 14 24  1  0  0  0  0
 15 20  1  0  0  0  0
 16 15  2  0  0  0  0
 17 16  1  0  0  0  0
 17 18  2  0  0  0  0
 18 19  1  0  0  0  0
 19 20  2  0  0  0  0
 19 27  1  0  0  0  0
 20 28  1  0  0  0  0
 21 13  1  0  0  0  0
 21 16  1  0  0  0  0
 22 21  2  0  0  0  0
 25 17  1  0  0  0  0
 26 18  1  0  0  0  0
 28 29  1  0  0  0  0
 28 30  1  0  0  0  0
 28 31  1  0  0  0  0
 32 33  1  0  0  0  0
 33 34  2  0  0  0  0
 33 38  1  0  0  0  0
 34 40  1  0  0  0  0
 35 39  1  0  0  0  0
 35 34  1  0  0  0  0
 36 35  2  0  0  0  0
 37 36  1  0  0  0  0
 37 32  2  0  0  0  0
 40 41  1  0  0  0  0
 40 42  1  0  0  0  0
 41 45  1  0  0  0  0
 41 42  1  0  0  0  0
 42 46  1  0  0  0  0
 42 47  1  0  0  0  0
 43 40  1  0  0  0  0
 44 41  1  0  0  0  0
 48 49  1  0  0  0  0
 48 50  1  0  0  0  0
 48 36  1  0  0  0  0
 51 48  1  0  0  0  0
 52 53  1  6  0  0  0
 52  1  1  0  0  0  0
 52 58  1  0  0  0  0
 54 52  1  0  0  0  0
 54 56  1  0  0  0  0
 54 57  1  0  0  0  0
 55 54  1  0  0  0  0
 58 60  1  0  0  0  0
 58 61  1  0  0  0  0
 59 58  1  0  0  0  0
 61 62  2  0  0  0  0
 61 65  1  0  0  0  0
 62 63  1  0  0  0  0
 63 64  2  0  0  0  0
 64 66  1  0  0  0  0
 65 67  1  0  0  0  0
 65 64  1  0  0  0  0
 67 68  1  0  0  0  0
 67 69  1  0  0  0  0
 70 67  1  0  0  0  0
M  END
>  <MODEL>
1

>  <REMARK>
 VINA RESULT:    -6.770      0.000      0.000
 INTER + INTRA:          -9.500
 INTER:                  -8.781
 INTRA:                  -0.719
 UNBOUND:                 0.832
  Name = 
  10 active torsions:
  status: ('A' for Active; 'I' for Inactive)
    1  A    between atoms: C_1  and  C_2
    2  A    between atoms: C_2  and  C_3
    3  A    between atoms: C_2  and  C_10
    4  A    between atoms: C_3  and  C_4
    5  A    between atoms: N_8  and  C_9
    6  A    between atoms: C_14  and  C_16
    7  A    between atoms: C_18  and  C_19
    8  A    between atoms: C_23  and  C_24
    9  A    between atoms: C_30  and  N_31
   10  A    between atoms: C_38  and  C_39
                            x       y       z     vdW  Elec       q    Type
                         _______ _______ _______ _____ _____    ______ ____

>  <TORSDO>
F 10

$$$$
=
 OpenBabel07192307433D

 70 75  0  0  1  0  0  0  0  0999 V2000
    2.7100   12.5980   18.1280 C   0  0  0  0  0  0  0  0  0  0  0  0
    3.1100   11.2590   18.0430 C   0  0  0  0  0  0  0  0  0  0  0  0
    2.2220   10.2620   18.4140 C   0  0  0  0  0  0  0  0  0  0  0  0
    2.4990    8.9020   18.3300 N   0  0  0  0  0  0  0  0  0  0  0  0
    3.6130    8.2650   17.8410 C   0  0  0  0  0  0  0  0  0  0  0  0
    4.6240    8.7880   17.3850 O   0  0  0  0  0  0  0  0  0  0  0  0
    0.9810   10.5260   18.8750 N   0  0  0  0  0  0  0  0  0  0  0  0
    0.5710   11.8210   18.9650 C   0  0  0  0  0  0  0  0  0  0  0  0
    1.4170   12.8690   18.6010 C   0  0  0  0  0  0  0  0  0  0  0  0
    1.0650   14.1520   18.7410 F   0  0  0  0  0  0  0  0  0  0  0  0
    4.1110   11.0090   17.7180 H   0  0  0  0  0  0  0  0  0  0  0  0
    1.7410    8.3060   18.6510 H   0  0  0  0  0  0  0  0  0  0  0  0
   -0.7390   11.9980   19.4610 N   0  0  0  0  0  0  0  0  0  0  0  0
   -0.9370   12.1050   20.8980 C   0  0  0  0  0  0  0  0  0  0  0  0
   -2.4120   12.3150   21.0230 C   0  0  0  0  0  0  0  0  0  0  0  0
   -2.9920   12.2890   19.7590 C   0  0  0  0  0  0  0  0  0  0  0  0
   -4.3510   12.4470   19.5670 C   0  0  0  0  0  0  0  0  0  0  0  0
   -5.1470   12.6410   20.7010 C   0  0  0  0  0  0  0  0  0  0  0  0
   -4.5730   12.6680   21.9850 C   0  0  0  0  0  0  0  0  0  0  0  0
   -3.1880   12.5020   22.1670 C   0  0  0  0  0  0  0  0  0  0  0  0
   -1.9360   12.0550   18.7600 C   0  0  0  0  0  0  0  0  0  0  0  0
   -2.1990   11.9060   17.5820 O   0  0  0  0  0  0  0  0  0  0  0  0
   -0.3840   12.9710   21.2810 H   0  0  0  0  0  0  0  0  0  0  0  0
   -0.6340   11.1740   21.3910 H   0  0  0  0  0  0  0  0  0  0  0  0
   -4.7800   12.4080   18.5700 H   0  0  0  0  0  0  0  0  0  0  0  0
   -6.2220   12.7640   20.5890 H   0  0  0  0  0  0  0  0  0  0  0  0
   -5.2210   12.8120   22.8480 H   0  0  0  0  0  0  0  0  0  0  0  0
   -2.5510   12.5130   23.5300 C   0  0  0  0  0  0  0  0  0  0  0  0
   -1.7030   13.5530   23.7400 F   0  0  0  0  0  0  0  0  0  0  0  0
   -1.8320   11.3770   23.7640 F   0  0  0  0  0  0  0  0  0  0  0  0
   -3.4770   12.5830   24.5220 F   0  0  0  0  0  0  0  0  0  0  0  0
    3.4890    6.7700   17.8810 C   0  0  0  0  0  0  0  0  0  0  0  0
    4.2060    5.9860   16.9870 C   0  0  0  0  0  0  0  0  0  0  0  0
    4.0590    4.5920   17.0100 C   0  0  0  0  0  0  0  0  0  0  0  0
    3.1690    4.0720   17.9630 C   0  0  0  0  0  0  0  0  0  0  0  0
    2.4760    4.9140   18.8440 C   0  0  0  0  0  0  0  0  0  0  0  0
    2.6290    6.2660   18.8070 N   0  0  0  0  0  0  0  0  0  0  0  0
    4.8690    6.4560   16.2660 H   0  0  0  0  0  0  0  0  0  0  0  0
    2.9970    2.9990   18.0130 H   0  0  0  0  0  0  0  0  0  0  0  0
    4.8240    3.7400   16.0170 C   0  0  0  0  0  0  0  0  0  0  0  0
    5.4120    4.2770   14.7360 C   0  0  0  0  0  0  0  0  0  0  0  0
    6.3170    3.9320   15.8810 C   0  0  0  0  0  0  0  0  0  0  0  0
    4.4730    2.7100   15.9400 H   0  0  0  0  0  0  0  0  0  0  0  0
    5.2910    5.3190   14.4720 H   0  0  0  0  0  0  0  0  0  0  0  0
    5.4180    3.6200   13.8730 H   0  0  0  0  0  0  0  0  0  0  0  0
    6.7960    4.7430   16.4150 H   0  0  0  0  0  0  0  0  0  0  0  0
    6.9340    3.0420   15.7970 H   0  0  0  0  0  0  0  0  0  0  0  0
    1.4860    4.3110   19.8340 C   0  0  0  0  0  0  0  0  0  0  0  0
    0.4910    3.6110   19.2170 F   0  0  0  0  0  0  0  0  0  0  0  0
    0.8670    5.2460   20.6070 F   0  0  0  0  0  0  0  0  0  0  0  0
    2.0620    3.4330   20.7080 F   0  0  0  0  0  0  0  0  0  0  0  0
    3.6210   13.7610   17.7660 C   0  0  2  0  0  0  0  0  0  0  0  0
    3.3340   14.0560   16.7460 H   0  0  0  0  0  0  0  0  0  0  0  0
    5.1100   13.4010   17.6560 C   0  0  0  0  0  0  0  0  0  0  0  0
    5.7630   14.2750   17.7410 H   0  0  0  0  0  0  0  0  0  0  0  0
    5.3970   12.6910   18.4390 H   0  0  0  0  0  0  0  0  0  0  0  0
    5.3190   12.9270   16.6920 H   0  0  0  0  0  0  0  0  0  0  0  0
    3.3930   15.0050   18.6550 C   0  0  0  0  0  0  0  0  0  0  0  0
    3.6100   15.9040   18.0660 H   0  0  0  0  0  0  0  0  0  0  0  0
    2.3320   15.0830   18.9300 H   0  0  0  0  0  0  0  0  0  0  0  0
    4.1920   15.0120   19.9190 C   0  0  0  0  0  0  0  0  0  0  0  0
    5.4950   15.1960   20.0190 N   0  0  0  0  0  0  0  0  0  0  0  0
    5.8490   15.1040   21.3440 N   0  0  0  0  0  0  0  0  0  0  0  0
    4.7580   14.8490   22.0260 C   0  0  0  0  0  0  0  0  0  0  0  0
    3.6940   14.7860   21.1780 N   0  0  0  0  0  0  0  0  0  0  0  0
    4.6980   14.7050   23.0970 H   0  0  0  0  0  0  0  0  0  0  0  0
    2.3340   14.5050   21.5500 C   0  0  0  0  0  0  0  0  0  0  0  0
    1.7350   15.4050   21.3960 H   0  0  0  0  0  0  0  0  0  0  0  0
    2.2930   14.2200   22.6040 H   0  0  0  0  0  0  0  0  0  0  0  0
    1.9700   13.6810   20.9340 H   0  0  0  0  0  0  0  0  0  0  0  0
  1  9  1  0  0  0  0
  2  1  2  0  0  0  0
  2  3  1  0  0  0  0
  3  7  2  0  0  0  0
  4  3  1  0  0  0  0
  4 12  1  0  0  0  0
  5 32  1  0  0  0  0
  5  4  1  0  0  0  0
  6  5  2  0  0  0  0
  7  8  1  0  0  0  0
  8 13  1  0  0  0  0
  9 10  1  0  0  0  0
  9  8  2  0  0  0  0
 11  2  1  0  0  0  0
 13 14  1  0  0  0  0
 14 15  1  0  0  0  0
 14 23  1  0  0  0  0
 14 24  1  0  0  0  0
 15 20  1  0  0  0  0
 16 15  2  0  0  0  0
 17 16  1  0  0  0  0
 17 18  2  0  0  0  0
 18 19  1  0  0  0  0
 19 20  2  0  0  0  0
 19 27  1  0  0  0  0
 20 28  1  0  0  0  0
 21 13  1  0  0  0  0
 21 16  1  0  0  0  0
 22 21  2  0  0  0  0
 25 17  1  0  0  0  0
 26 18  1  0  0  0  0
 28 29  1  0  0  0  0
 28 30  1  0  0  0  0
 28 31  1  0  0  0  0
 32 37  1  0  0  0  0
 33 34  1  0  0  0  0
 33 32  2  0  0  0  0
 34 35  2  0  0  0  0
 35 39  1  0  0  0  0
 35 36  1  0  0  0  0
 36 48  1  0  0  0  0
 37 36  2  0  0  0  0
 38 33  1  0  0  0  0
 40 34  1  0  0  0  0
 41 42  1  0  0  0  0
 41 40  1  0  0  0  0
 42 40  1  0  0  0  0
 42 46  1  0  0  0  0
 43 40  1  0  0  0  0
 44 41  1  0  0  0  0
 45 41  1  0  0  0  0
 47 42  1  0  0  0  0
 48 50  1  0  0  0  0
 48 51  1  0  0  0  0
 49 48  1  0  0  0  0
 52 53  1  6  0  0  0
 52  1  1  0  0  0  0
 52 58  1  0  0  0  0
 54 55  1  0  0  0  0
 54 52  1  0  0  0  0
 54 56  1  0  0  0  0
 57 54  1  0  0  0  0
 58 60  1  0  0  0  0
 58 61  1  0  0  0  0
 59 58  1  0  0  0  0
 61 62  2  0  0  0  0
 61 65  1  0  0  0  0
 62 63  1  0  0  0  0
 63 64  2  0  0  0  0
 64 66  1  0  0  0  0
 65 67  1  0  0  0  0
 65 64  1  0  0  0  0
 67 69  1  0  0  0  0
 68 67  1  0  0  0  0
 70 67  1  0  0  0  0
M  END
>  <MODEL>
2

>  <REMARK>
 VINA RESULT:    -6.448      1.588      2.509
 INTER + INTRA:          -9.009
 INTER:                  -8.412
 INTRA:                  -0.597
 UNBOUND:                 0.832
  Name = 
  10 active torsions:
  status: ('A' for Active; 'I' for Inactive)
    1  A    between atoms: C_1  and  C_2
    2  A    between atoms: C_2  and  C_3
    3  A    between atoms: C_2  and  C_10
    4  A    between atoms: C_3  and  C_4
    5  A    between atoms: N_8  and  C_9
    6  A    between atoms: C_14  and  C_16
    7  A    between atoms: C_18  and  C_19
    8  A    between atoms: C_23  and  C_24
    9  A    between atoms: C_30  and  N_31
   10  A    between atoms: C_38  and  C_39
                            x       y       z     vdW  Elec       q    Type
                         _______ _______ _______ _____ _____    ______ ____

>  <TORSDO>
F 10

$$$$
=
 OpenBabel07192307433D

 70 75  0  0  1  0  0  0  0  0999 V2000
    3.9320    4.5980   19.8530 C   0  0  0  0  0  0  0  0  0  0  0  0
    3.1630    5.7640   19.9420 C   0  0  0  0  0  0  0  0  0  0  0  0
    3.2090    6.6860   18.9080 C   0  0  0  0  0  0  0  0  0  0  0  0
    2.4560    7.8550   18.8740 N   0  0  0  0  0  0  0  0  0  0  0  0
    1.5140    8.3150   19.7610 C   0  0  0  0  0  0  0  0  0  0  0  0
    1.1530    7.7770   20.8020 O   0  0  0  0  0  0  0  0  0  0  0  0
    3.9810    6.5170   17.8150 N   0  0  0  0  0  0  0  0  0  0  0  0
    4.7360    5.3900   17.7060 C   0  0  0  0  0  0  0  0  0  0  0  0
    4.7280    4.4220   18.7120 C   0  0  0  0  0  0  0  0  0  0  0  0
    5.5090    3.3360   18.6620 F   0  0  0  0  0  0  0  0  0  0  0  0
    2.5620    5.9560   20.8220 H   0  0  0  0  0  0  0  0  0  0  0  0
    2.6150    8.4240   18.0470 H   0  0  0  0  0  0  0  0  0  0  0  0
    5.5140    5.3040   16.5310 N   0  0  0  0  0  0  0  0  0  0  0  0
    5.0130    4.5190   15.4130 C   0  0  0  0  0  0  0  0  0  0  0  0
    6.0720    4.6960   14.3730 C   0  0  0  0  0  0  0  0  0  0  0  0
    7.0970    5.4850   14.8850 C   0  0  0  0  0  0  0  0  0  0  0  0
    8.2190    5.8080   14.1460 C   0  0  0  0  0  0  0  0  0  0  0  0
    8.2980    5.3140   12.8410 C   0  0  0  0  0  0  0  0  0  0  0  0
    7.2700    4.5150   12.3110 C   0  0  0  0  0  0  0  0  0  0  0  0
    6.1340    4.1890   13.0750 C   0  0  0  0  0  0  0  0  0  0  0  0
    6.7630    5.8490   16.2720 C   0  0  0  0  0  0  0  0  0  0  0  0
    7.5430    6.4700   16.9700 O   0  0  0  0  0  0  0  0  0  0  0  0
    4.0570    4.9340   15.0730 H   0  0  0  0  0  0  0  0  0  0  0  0
    4.9240    3.4660   15.7010 H   0  0  0  0  0  0  0  0  0  0  0  0
    9.0110    6.4140   14.5760 H   0  0  0  0  0  0  0  0  0  0  0  0
    9.1700    5.5450   12.2310 H   0  0  0  0  0  0  0  0  0  0  0  0
    7.3660    4.1380   11.2930 H   0  0  0  0  0  0  0  0  0  0  0  0
    5.0260    3.3250   12.5380 C   0  0  0  0  0  0  0  0  0  0  0  0
    5.4510    2.2870   11.7710 F   0  0  0  0  0  0  0  0  0  0  0  0
    4.1530    4.0370   11.7700 F   0  0  0  0  0  0  0  0  0  0  0  0
    4.2850    2.7710   13.5340 F   0  0  0  0  0  0  0  0  0  0  0  0
    0.8880    9.6070   19.3230 C   0  0  0  0  0  0  0  0  0  0  0  0
   -0.2870    9.5990   18.5840 C   0  0  0  0  0  0  0  0  0  0  0  0
   -0.8470   10.8080   18.1510 C   0  0  0  0  0  0  0  0  0  0  0  0
   -0.1560   11.9790   18.5050 C   0  0  0  0  0  0  0  0  0  0  0  0
    1.0240   11.9250   19.2580 C   0  0  0  0  0  0  0  0  0  0  0  0
    1.5550   10.7410   19.6690 N   0  0  0  0  0  0  0  0  0  0  0  0
   -0.7620    8.6540   18.3340 H   0  0  0  0  0  0  0  0  0  0  0  0
   -0.5310   12.9470   18.1780 H   0  0  0  0  0  0  0  0  0  0  0  0
   -2.1170   10.7960   17.3240 C   0  0  0  0  0  0  0  0  0  0  0  0
   -3.1720    9.7230   17.4330 C   0  0  0  0  0  0  0  0  0  0  0  0
   -3.4370   11.0860   18.0000 C   0  0  0  0  0  0  0  0  0  0  0  0
   -2.0040   11.2000   16.3170 H   0  0  0  0  0  0  0  0  0  0  0  0
   -3.0440    8.8960   18.1180 H   0  0  0  0  0  0  0  0  0  0  0  0
   -3.6970    9.4430   16.5260 H   0  0  0  0  0  0  0  0  0  0  0  0
   -3.4660   11.1930   19.0770 H   0  0  0  0  0  0  0  0  0  0  0  0
   -4.1390   11.7310   17.4790 H   0  0  0  0  0  0  0  0  0  0  0  0
    1.7660   13.2170   19.5830 C   0  0  0  0  0  0  0  0  0  0  0  0
    2.5380   13.6510   18.5460 F   0  0  0  0  0  0  0  0  0  0  0  0
    2.6000   13.1000   20.6540 F   0  0  0  0  0  0  0  0  0  0  0  0
    0.9320   14.2600   19.8770 F   0  0  0  0  0  0  0  0  0  0  0  0
    3.9650    3.5400   20.9460 C   0  0  2  0  0  0  0  0  0  0  0  0
    4.2680    4.0700   21.8610 H   0  0  0  0  0  0  0  0  0  0  0  0
    5.0370    2.4560   20.7580 C   0  0  0  0  0  0  0  0  0  0  0  0
    4.6180    1.4450   20.7520 H   0  0  0  0  0  0  0  0  0  0  0  0
    5.5760    2.6020   19.8170 H   0  0  0  0  0  0  0  0  0  0  0  0
    5.7730    2.5020   21.5680 H   0  0  0  0  0  0  0  0  0  0  0  0
    2.5750    2.9310   21.2390 C   0  0  0  0  0  0  0  0  0  0  0  0
    2.7120    1.9510   21.7110 H   0  0  0  0  0  0  0  0  0  0  0  0
    2.0430    3.5440   21.9810 H   0  0  0  0  0  0  0  0  0  0  0  0
    1.6940    2.8060   20.0370 C   0  0  0  0  0  0  0  0  0  0  0  0
    0.5280    3.3970   19.8580 N   0  0  0  0  0  0  0  0  0  0  0  0
    0.0230    3.0070   18.6390 N   0  0  0  0  0  0  0  0  0  0  0  0
    0.8820    2.1720   18.1060 C   0  0  0  0  0  0  0  0  0  0  0  0
    1.9470    2.0180   18.9430 N   0  0  0  0  0  0  0  0  0  0  0  0
    0.7740    1.6730   17.1530 H   0  0  0  0  0  0  0  0  0  0  0  0
    3.0830    1.1660   18.7140 C   0  0  0  0  0  0  0  0  0  0  0  0
    3.1530    0.9540   17.6450 H   0  0  0  0  0  0  0  0  0  0  0  0
    2.9550    0.2280   19.2610 H   0  0  0  0  0  0  0  0  0  0  0  0
    3.9760    1.6790   19.0720 H   0  0  0  0  0  0  0  0  0  0  0  0
  1  2  1  0  0  0  0
  1 52  1  0  0  0  0
  2 11  1  0  0  0  0
  3  2  2  0  0  0  0
  4  3  1  0  0  0  0
  4  5  1  0  0  0  0
  5  6  2  0  0  0  0
  7  3  1  0  0  0  0
  8  7  2  0  0  0  0
  8  9  1  0  0  0  0
  9  1  2  0  0  0  0
 10  9  1  0  0  0  0
 12  4  1  0  0  0  0
 13  8  1  0  0  0  0
 14 24  1  0  0  0  0
 14 13  1  0  0  0  0
 15 16  1  0  0  0  0
 15 14  1  0  0  0  0
 16 21  1  0  0  0  0
 17 25  1  0  0  0  0
 17 16  2  0  0  0  0
 18 17  1  0  0  0  0
 19 18  2  0  0  0  0
 19 20  1  0  0  0  0
 20 15  2  0  0  0  0
 21 13  1  0  0  0  0
 21 22  2  0  0  0  0
 23 14  1  0  0  0  0
 26 18  1  0  0  0  0
 27 19  1  0  0  0  0
 28 20  1  0  0  0  0
 28 31  1  0  0  0  0
 29 28  1  0  0  0  0
 30 28  1  0  0  0  0
 32 37  1  0  0  0  0
 32  5  1  0  0  0  0
 33 32  2  0  0  0  0
 34 35  2  0  0  0  0
 34 33  1  0  0  0  0
 35 36  1  0  0  0  0
 36 48  1  0  0  0  0
 36 37  2  0  0  0  0
 38 33  1  0  0  0  0
 39 35  1  0  0  0  0
 40 41  1  0  0  0  0
 40 42  1  0  0  0  0
 40 34  1  0  0  0  0
 41 42  1  0  0  0  0
 41 44  1  0  0  0  0
 42 46  1  0  0  0  0
 43 40  1  0  0  0  0
 45 41  1  0  0  0  0
 47 42  1  0  0  0  0
 48 51  1  0  0  0  0
 48 50  1  0  0  0  0
 49 48  1  0  0  0  0
 52 58  1  0  0  0  0
 52 53  1  1  0  0  0
 54 52  1  0  0  0  0
 54 57  1  0  0  0  0
 55 54  1  0  0  0  0
 56 54  1  0  0  0  0
 58 59  1  0  0  0  0
 58 60  1  0  0  0  0
 61 58  1  0  0  0  0
 62 61  2  0  0  0  0
 63 62  1  0  0  0  0
 64 63  2  0  0  0  0
 64 65  1  0  0  0  0
 65 61  1  0  0  0  0
 66 64  1  0  0  0  0
 67 65  1  0  0  0  0
 67 70  1  0  0  0  0
 67 69  1  0  0  0  0
 68 67  1  0  0  0  0
M  END
>  <MODEL>
3

>  <REMARK>
 VINA RESULT:    -6.332      3.245     11.262
 INTER + INTRA:          -8.832
 INTER:                  -8.991
 INTRA:                   0.159
 UNBOUND:                 0.832
  Name = 
  10 active torsions:
  status: ('A' for Active; 'I' for Inactive)
    1  A    between atoms: C_1  and  C_2
    2  A    between atoms: C_2  and  C_3
    3  A    between atoms: C_2  and  C_10
    4  A    between atoms: C_3  and  C_4
    5  A    between atoms: N_8  and  C_9
    6  A    between atoms: C_14  and  C_16
    7  A    between atoms: C_18  and  C_19
    8  A    between atoms: C_23  and  C_24
    9  A    between atoms: C_30  and  N_31
   10  A    between atoms: C_38  and  C_39
                            x       y       z     vdW  Elec       q    Type
                         _______ _______ _______ _____ _____    ______ ____

>  <TORSDO>
F 10

$$$$
=
 OpenBabel07192307433D

 70 75  0  0  1  0  0  0  0  0999 V2000
    3.9380    4.5620   19.8420 C   0  0  0  0  0  0  0  0  0  0  0  0
    3.1380    5.7090   19.9210 C   0  0  0  0  0  0  0  0  0  0  0  0
    3.1630    6.6250   18.8820 C   0  0  0  0  0  0  0  0  0  0  0  0
    2.3800    7.7740   18.8380 N   0  0  0  0  0  0  0  0  0  0  0  0
    1.4230    8.2130   19.7180 C   0  0  0  0  0  0  0  0  0  0  0  0
    1.0720    7.6720   20.7610 O   0  0  0  0  0  0  0  0  0  0  0  0
    3.9450    6.4700   17.7930 N   0  0  0  0  0  0  0  0  0  0  0  0
    4.7290    5.3620   17.6940 C   0  0  0  0  0  0  0  0  0  0  0  0
    4.7440    4.4010   18.7060 C   0  0  0  0  0  0  0  0  0  0  0  0
    5.5530    3.3360   18.6660 F   0  0  0  0  0  0  0  0  0  0  0  0
    2.5290    5.8890   20.7980 H   0  0  0  0  0  0  0  0  0  0  0  0
    2.5270    8.3420   18.0080 H   0  0  0  0  0  0  0  0  0  0  0  0
    5.5140    5.2900   16.5230 N   0  0  0  0  0  0  0  0  0  0  0  0
    5.0370    4.4880   15.4060 C   0  0  0  0  0  0  0  0  0  0  0  0
    6.0970    4.6860   14.3700 C   0  0  0  0  0  0  0  0  0  0  0  0
    7.0990    5.5020   14.8830 C   0  0  0  0  0  0  0  0  0  0  0  0
    8.2160    5.8490   14.1470 C   0  0  0  0  0  0  0  0  0  0  0  0
    8.3140    5.3510   12.8440 C   0  0  0  0  0  0  0  0  0  0  0  0
    7.3070    4.5240   12.3140 C   0  0  0  0  0  0  0  0  0  0  0  0
    6.1770    4.1740   13.0750 C   0  0  0  0  0  0  0  0  0  0  0  0
    6.7510    5.8650   16.2660 C   0  0  0  0  0  0  0  0  0  0  0  0
    7.5120    6.5070   16.9650 O   0  0  0  0  0  0  0  0  0  0  0  0
    4.0730    4.8770   15.0610 H   0  0  0  0  0  0  0  0  0  0  0  0
    4.9730    3.4340   15.7000 H   0  0  0  0  0  0  0  0  0  0  0  0
    8.9920    6.4760   14.5770 H   0  0  0  0  0  0  0  0  0  0  0  0
    9.1810    5.6000   12.2370 H   0  0  0  0  0  0  0  0  0  0  0  0
    7.4170    4.1450   11.2990 H   0  0  0  0  0  0  0  0  0  0  0  0
    5.0930    3.2810   12.5370 C   0  0  0  0  0  0  0  0  0  0  0  0
    5.5460    2.2550   11.7700 F   0  0  0  0  0  0  0  0  0  0  0  0
    4.2000    3.9700   11.7700 F   0  0  0  0  0  0  0  0  0  0  0  0
    4.3670    2.7070   13.5340 F   0  0  0  0  0  0  0  0  0  0  0  0
    0.7650    9.4860   19.2690 C   0  0  0  0  0  0  0  0  0  0  0  0
    1.3000   10.7150   19.6330 C   0  0  0  0  0  0  0  0  0  0  0  0
    0.6620   11.8970   19.2370 C   0  0  0  0  0  0  0  0  0  0  0  0
   -0.5110   11.7510   18.4790 C   0  0  0  0  0  0  0  0  0  0  0  0
   -1.0010   10.4840   18.1380 C   0  0  0  0  0  0  0  0  0  0  0  0
   -0.3690    9.3440   18.5320 N   0  0  0  0  0  0  0  0  0  0  0  0
    2.2060   10.7540   20.2320 H   0  0  0  0  0  0  0  0  0  0  0  0
   -1.0630   12.6340   18.1620 H   0  0  0  0  0  0  0  0  0  0  0  0
    1.2340   13.2370   19.6560 C   0  0  0  0  0  0  0  0  0  0  0  0
    2.6310   13.4140   20.1970 C   0  0  0  0  0  0  0  0  0  0  0  0
    2.3100   13.8740   18.8060 C   0  0  0  0  0  0  0  0  0  0  0  0
    0.5060   13.9250   20.0870 H   0  0  0  0  0  0  0  0  0  0  0  0
    3.2840   12.5600   20.3200 H   0  0  0  0  0  0  0  0  0  0  0  0
    2.7810   14.1730   20.9580 H   0  0  0  0  0  0  0  0  0  0  0  0
    2.7260   13.3170   17.9770 H   0  0  0  0  0  0  0  0  0  0  0  0
    2.2400   14.9420   18.6220 H   0  0  0  0  0  0  0  0  0  0  0  0
   -2.3020   10.3690   17.3510 C   0  0  0  0  0  0  0  0  0  0  0  0
   -3.1000    9.3600   17.8040 F   0  0  0  0  0  0  0  0  0  0  0  0
   -2.1060   10.1300   16.0240 F   0  0  0  0  0  0  0  0  0  0  0  0
   -3.0720   11.4980   17.4120 F   0  0  0  0  0  0  0  0  0  0  0  0
    3.9950    3.5130   20.9420 C   0  0  2  0  0  0  0  0  0  0  0  0
    4.3140    4.0500   21.8480 H   0  0  0  0  0  0  0  0  0  0  0  0
    5.0640    2.4290   20.7410 C   0  0  0  0  0  0  0  0  0  0  0  0
    4.6410    1.4200   20.7080 H   0  0  0  0  0  0  0  0  0  0  0  0
    5.6140    2.5940   19.8090 H   0  0  0  0  0  0  0  0  0  0  0  0
    5.7930    2.4540   21.5590 H   0  0  0  0  0  0  0  0  0  0  0  0
    2.6110    2.9040   21.2670 C   0  0  0  0  0  0  0  0  0  0  0  0
    2.7590    1.9300   21.7480 H   0  0  0  0  0  0  0  0  0  0  0  0
    2.0920    3.5230   22.0120 H   0  0  0  0  0  0  0  0  0  0  0  0
    1.7090    2.7630   20.0830 C   0  0  0  0  0  0  0  0  0  0  0  0
    0.5250    3.3250   19.9320 N   0  0  0  0  0  0  0  0  0  0  0  0
    0.0050    2.9290   18.7220 N   0  0  0  0  0  0  0  0  0  0  0  0
    0.8740    2.1210   18.1660 C   0  0  0  0  0  0  0  0  0  0  0  0
    1.9590    1.9880   18.9790 N   0  0  0  0  0  0  0  0  0  0  0  0
    0.7590    1.6240   17.2110 H   0  0  0  0  0  0  0  0  0  0  0  0
    3.1120    1.1680   18.7200 C   0  0  0  0  0  0  0  0  0  0  0  0
    3.5510    1.4700   17.7680 H   0  0  0  0  0  0  0  0  0  0  0  0
    2.8110    0.1190   18.6640 H   0  0  0  0  0  0  0  0  0  0  0  0
    3.8200    1.3000   19.5390 H   0  0  0  0  0  0  0  0  0  0  0  0
  1  2  1  0  0  0  0
  1 52  1  0  0  0  0
  2 11  1  0  0  0  0
  3  2  2  0  0  0  0
  4  3  1  0  0  0  0
  4  5  1  0  0  0  0
  5  6  2  0  0  0  0
  7  3  1  0  0  0  0
  8  7  2  0  0  0  0
  8  9  1  0  0  0  0
  9  1  2  0  0  0  0
 10  9  1  0  0  0  0
 12  4  1  0  0  0  0
 13  8  1  0  0  0  0
 14 24  1  0  0  0  0
 14 13  1  0  0  0  0
 15 16  1  0  0  0  0
 15 14  1  0  0  0  0
 16 21  1  0  0  0  0
 17 25  1  0  0  0  0
 17 16  2  0  0  0  0
 18 17  1  0  0  0  0
 19 18  2  0  0  0  0
 19 20  1  0  0  0  0
 20 15  2  0  0  0  0
 21 13  1  0  0  0  0
 21 22  2  0  0  0  0
 23 14  1  0  0  0  0
 26 18  1  0  0  0  0
 27 19  1  0  0  0  0
 28 20  1  0  0  0  0
 28 31  1  0  0  0  0
 29 28  1  0  0  0  0
 30 28  1  0  0  0  0
 32 33  1  0  0  0  0
 32  5  1  0  0  0  0
 33 38  1  0  0  0  0
 34 33  2  0  0  0  0
 34 40  1  0  0  0  0
 35 34  1  0  0  0  0
 36 35  2  0  0  0  0
 36 37  1  0  0  0  0
 37 32  2  0  0  0  0
 39 35  1  0  0  0  0
 40 43  1  0  0  0  0
 40 41  1  0  0  0  0
 41 44  1  0  0  0  0
 41 45  1  0  0  0  0
 42 40  1  0  0  0  0
 42 41  1  0  0  0  0
 46 42  1  0  0  0  0
 47 42  1  0  0  0  0
 48 51  1  0  0  0  0
 48 49  1  0  0  0  0
 48 36  1  0  0  0  0
 50 48  1  0  0  0  0
 52 58  1  0  0  0  0
 52 53  1  1  0  0  0
 54 52  1  0  0  0  0
 54 57  1  0  0  0  0
 55 54  1  0  0  0  0
 56 54  1  0  0  0  0
 58 59  1  0  0  0  0
 58 60  1  0  0  0  0
 61 58  1  0  0  0  0
 62 61  2  0  0  0  0
 63 62  1  0  0  0  0
 64 63  2  0  0  0  0
 64 65  1  0  0  0  0
 65 61  1  0  0  0  0
 66 64  1  0  0  0  0
 67 65  1  0  0  0  0
 67 70  1  0  0  0  0
 68 67  1  0  0  0  0
 69 67  1  0  0  0  0
M  END
>  <MODEL>
4

>  <REMARK>
 VINA RESULT:    -6.235      3.737     11.324
 INTER + INTRA:          -8.683
 INTER:                  -8.958
 INTRA:                   0.275
 UNBOUND:                 0.832
  Name = 
  10 active torsions:
  status: ('A' for Active; 'I' for Inactive)
    1  A    between atoms: C_1  and  C_2
    2  A    between atoms: C_2  and  C_3
    3  A    between atoms: C_2  and  C_10
    4  A    between atoms: C_3  and  C_4
    5  A    between atoms: N_8  and  C_9
    6  A    between atoms: C_14  and  C_16
    7  A    between atoms: C_18  and  C_19
    8  A    between atoms: C_23  and  C_24
    9  A    between atoms: C_30  and  N_31
   10  A    between atoms: C_38  and  C_39
                            x       y       z     vdW  Elec       q    Type
                         _______ _______ _______ _____ _____    ______ ____

>  <TORSDO>
F 10

$$$$
=
 OpenBabel07192307433D

 70 75  0  0  1  0  0  0  0  0999 V2000
    3.9180    4.5340   19.8720 C   0  0  0  0  0  0  0  0  0  0  0  0
    3.2380    5.7500   20.0090 C   0  0  0  0  0  0  0  0  0  0  0  0
    3.3380    6.6980   19.0040 C   0  0  0  0  0  0  0  0  0  0  0  0
    2.6720    7.9200   19.0180 N   0  0  0  0  0  0  0  0  0  0  0  0
    1.7780    8.4180   19.9320 C   0  0  0  0  0  0  0  0  0  0  0  0
    1.3910    7.8740   20.9610 O   0  0  0  0  0  0  0  0  0  0  0  0
    4.0830    6.5090   17.8950 N   0  0  0  0  0  0  0  0  0  0  0  0
    4.7510    5.3340   17.7400 C   0  0  0  0  0  0  0  0  0  0  0  0
    4.6860    4.3380   18.7150 C   0  0  0  0  0  0  0  0  0  0  0  0
    5.3850    3.2000   18.6200 F   0  0  0  0  0  0  0  0  0  0  0  0
    2.6640    5.9560   20.9040 H   0  0  0  0  0  0  0  0  0  0  0  0
    2.8620    8.5020   18.2070 H   0  0  0  0  0  0  0  0  0  0  0  0
    5.5060    5.2300   16.5520 N   0  0  0  0  0  0  0  0  0  0  0  0
    4.9540    4.4820   15.4320 C   0  0  0  0  0  0  0  0  0  0  0  0
    6.0040    4.6270   14.3770 C   0  0  0  0  0  0  0  0  0  0  0  0
    7.0700    5.3640   14.8830 C   0  0  0  0  0  0  0  0  0  0  0  0
    8.1930    5.6480   14.1300 C   0  0  0  0  0  0  0  0  0  0  0  0
    8.2310    5.1680   12.8170 C   0  0  0  0  0  0  0  0  0  0  0  0
    7.1600    4.4210   12.2940 C   0  0  0  0  0  0  0  0  0  0  0  0
    6.0240    4.1340   13.0730 C   0  0  0  0  0  0  0  0  0  0  0  0
    6.7740    5.7240   16.2790 C   0  0  0  0  0  0  0  0  0  0  0  0
    7.5910    6.3020   16.9720 O   0  0  0  0  0  0  0  0  0  0  0  0
    4.0120    4.9420   15.1130 H   0  0  0  0  0  0  0  0  0  0  0  0
    4.8250    3.4300   15.7090 H   0  0  0  0  0  0  0  0  0  0  0  0
    9.0170    6.2140   14.5530 H   0  0  0  0  0  0  0  0  0  0  0  0
    9.1010    5.3680   12.1960 H   0  0  0  0  0  0  0  0  0  0  0  0
    7.2240    4.0530   11.2710 H   0  0  0  0  0  0  0  0  0  0  0  0
    4.8710    3.3250   12.5430 C   0  0  0  0  0  0  0  0  0  0  0  0
    4.0020    4.0320   11.7740 F   0  0  0  0  0  0  0  0  0  0  0  0
    4.1340    2.7720   13.5480 F   0  0  0  0  0  0  0  0  0  0  0  0
    5.2920    2.2880   11.7710 F   0  0  0  0  0  0  0  0  0  0  0  0
    1.2430    9.7660   19.5440 C   0  0  0  0  0  0  0  0  0  0  0  0
    2.0400   10.6570   18.8390 C   0  0  0  0  0  0  0  0  0  0  0  0
    1.5440   11.9250   18.5090 C   0  0  0  0  0  0  0  0  0  0  0  0
    0.2360   12.2140   18.9290 C   0  0  0  0  0  0  0  0  0  0  0  0
   -0.5240   11.2710   19.6330 C   0  0  0  0  0  0  0  0  0  0  0  0
   -0.0260   10.0440   19.9480 N   0  0  0  0  0  0  0  0  0  0  0  0
    3.0500   10.3720   18.5560 H   0  0  0  0  0  0  0  0  0  0  0  0
   -0.1950   13.1910   18.7210 H   0  0  0  0  0  0  0  0  0  0  0  0
    2.4260   12.9060   17.7610 C   0  0  0  0  0  0  0  0  0  0  0  0
    2.3080   14.4030   17.8960 C   0  0  0  0  0  0  0  0  0  0  0  0
    3.4670   13.6890   18.5260 C   0  0  0  0  0  0  0  0  0  0  0  0
    2.7220   12.5770   16.7640 H   0  0  0  0  0  0  0  0  0  0  0  0
    1.5580   14.8380   18.5420 H   0  0  0  0  0  0  0  0  0  0  0  0
    2.5050   15.0030   17.0130 H   0  0  0  0  0  0  0  0  0  0  0  0
    3.4940   13.6150   19.6060 H   0  0  0  0  0  0  0  0  0  0  0  0
    4.4470   13.8010   18.0720 H   0  0  0  0  0  0  0  0  0  0  0  0
   -1.9250   11.6410   20.1090 C   0  0  0  0  0  0  0  0  0  0  0  0
   -2.1760   12.9770   20.0060 F   0  0  0  0  0  0  0  0  0  0  0  0
   -2.1520   11.3130   21.4120 F   0  0  0  0  0  0  0  0  0  0  0  0
   -2.9180   11.0270   19.3970 F   0  0  0  0  0  0  0  0  0  0  0  0
    3.8880    3.4420   20.9310 C   0  0  2  0  0  0  0  0  0  0  0  0
    4.2140    3.9260   21.8650 H   0  0  0  0  0  0  0  0  0  0  0  0
    4.9000    2.3080   20.7140 C   0  0  0  0  0  0  0  0  0  0  0  0
    5.8500    2.4860   21.2260 H   0  0  0  0  0  0  0  0  0  0  0  0
    4.4980    1.3550   21.0730 H   0  0  0  0  0  0  0  0  0  0  0  0
    5.1190    2.1890   19.6470 H   0  0  0  0  0  0  0  0  0  0  0  0
    2.4650    2.9010   21.2000 C   0  0  0  0  0  0  0  0  0  0  0  0
    2.5460    1.9120   21.6660 H   0  0  0  0  0  0  0  0  0  0  0  0
    1.9540    3.5340   21.9390 H   0  0  0  0  0  0  0  0  0  0  0  0
    1.5970    2.8280   19.9840 C   0  0  0  0  0  0  0  0  0  0  0  0
    0.4520    3.4590   19.8030 N   0  0  0  0  0  0  0  0  0  0  0  0
   -0.0480    3.1100   18.5700 N   0  0  0  0  0  0  0  0  0  0  0  0
    0.7930    2.2610   18.0300 C   0  0  0  0  0  0  0  0  0  0  0  0
    1.8400    2.0560   18.8760 N   0  0  0  0  0  0  0  0  0  0  0  0
    0.6820    1.7850   17.0650 H   0  0  0  0  0  0  0  0  0  0  0  0
    2.9530    1.1750   18.6430 C   0  0  0  0  0  0  0  0  0  0  0  0
    3.7300    1.3890   19.3790 H   0  0  0  0  0  0  0  0  0  0  0  0
    3.3500    1.3420   17.6390 H   0  0  0  0  0  0  0  0  0  0  0  0
    2.6020    0.1460   18.7310 H   0  0  0  0  0  0  0  0  0  0  0  0
  1  2  1  0  0  0  0
  1 52  1  0  0  0  0
  2 11  1  0  0  0  0
  3  4  1  0  0  0  0
  3  2  2  0  0  0  0
  4  5  1  0  0  0  0
  5  6  2  0  0  0  0
  7  3  1  0  0  0  0
  8  7  2  0  0  0  0
  8  9  1  0  0  0  0
  9  1  2  0  0  0  0
 10  9  1  0  0  0  0
 12  4  1  0  0  0  0
 13  8  1  0  0  0  0
 14 24  1  0  0  0  0
 14 13  1  0  0  0  0
 15 16  1  0  0  0  0
 15 14  1  0  0  0  0
 16 21  1  0  0  0  0
 17 25  1  0  0  0  0
 17 16  2  0  0  0  0
 18 17  1  0  0  0  0
 19 18  2  0  0  0  0
 19 20  1  0  0  0  0
 20 15  2  0  0  0  0
 21 13  1  0  0  0  0
 21 22  2  0  0  0  0
 23 14  1  0  0  0  0
 26 18  1  0  0  0  0
 27 19  1  0  0  0  0
 28 20  1  0  0  0  0
 28 30  1  0  0  0  0
 29 28  1  0  0  0  0
 31 28  1  0  0  0  0
 32  5  1  0  0  0  0
 32 37  1  0  0  0  0
 33 32  2  0  0  0  0
 34 33  1  0  0  0  0
 34 35  2  0  0  0  0
 35 36  1  0  0  0  0
 36 37  2  0  0  0  0
 36 48  1  0  0  0  0
 38 33  1  0  0  0  0
 39 35  1  0  0  0  0
 40 41  1  0  0  0  0
 40 34  1  0  0  0  0
 40 42  1  0  0  0  0
 41 42  1  0  0  0  0
 41 44  1  0  0  0  0
 42 46  1  0  0  0  0
 43 40  1  0  0  0  0
 45 41  1  0  0  0  0
 47 42  1  0  0  0  0
 48 50  1  0  0  0  0
 49 48  1  0  0  0  0
 51 48  1  0  0  0  0
 52 58  1  0  0  0  0
 52 53  1  1  0  0  0
 54 52  1  0  0  0  0
 54 56  1  0  0  0  0
 54 55  1  0  0  0  0
 57 54  1  0  0  0  0
 58 59  1  0  0  0  0
 58 60  1  0  0  0  0
 61 58  1  0  0  0  0
 62 61  2  0  0  0  0
 63 62  1  0  0  0  0
 64 63  2  0  0  0  0
 64 65  1  0  0  0  0
 65 61  1  0  0  0  0
 66 64  1  0  0  0  0
 67 70  1  0  0  0  0
 67 65  1  0  0  0  0
 67 68  1  0  0  0  0
 69 67  1  0  0  0  0
M  END
>  <MODEL>
5

>  <REMARK>
 VINA RESULT:    -4.963      2.931     11.475
 INTER + INTRA:          -6.743
 INTER:                  -7.003
 INTRA:                   0.260
 UNBOUND:                 0.832
  Name = 
  10 active torsions:
  status: ('A' for Active; 'I' for Inactive)
    1  A    between atoms: C_1  and  C_2
    2  A    between atoms: C_2  and  C_3
    3  A    between atoms: C_2  and  C_10
    4  A    between atoms: C_3  and  C_4
    5  A    between atoms: N_8  and  C_9
    6  A    between atoms: C_14  and  C_16
    7  A    between atoms: C_18  and  C_19
    8  A    between atoms: C_23  and  C_24
    9  A    between atoms: C_30  and  N_31
   10  A    between atoms: C_38  and  C_39
                            x       y       z     vdW  Elec       q    Type
                         _______ _______ _______ _____ _____    ______ ____

>  <TORSDO>
F 10

$$$$
=
 OpenBabel07192307433D

 70 75  0  0  1  0  0  0  0  0999 V2000
    2.5030    5.2560   19.0330 C   0  0  0  0  0  0  0  0  0  0  0  0
    2.1200    6.5900   19.2160 C   0  0  0  0  0  0  0  0  0  0  0  0
    2.7090    7.5760   18.4400 C   0  0  0  0  0  0  0  0  0  0  0  0
    2.3750    8.9240   18.5080 N   0  0  0  0  0  0  0  0  0  0  0  0
    1.4120    9.5490   19.2620 C   0  0  0  0  0  0  0  0  0  0  0  0
    0.6450    9.0270   20.0640 O   0  0  0  0  0  0  0  0  0  0  0  0
    3.6580    7.3080   17.5190 N   0  0  0  0  0  0  0  0  0  0  0  0
    4.0440    6.0180   17.3230 C   0  0  0  0  0  0  0  0  0  0  0  0
    3.4840    4.9810   18.0690 C   0  0  0  0  0  0  0  0  0  0  0  0
    3.8910    3.7120   17.9450 F   0  0  0  0  0  0  0  0  0  0  0  0
    1.3930    6.8510   19.9740 H   0  0  0  0  0  0  0  0  0  0  0  0
    2.9080    9.5150   17.8770 H   0  0  0  0  0  0  0  0  0  0  0  0
    5.0430    5.8370   16.3420 N   0  0  0  0  0  0  0  0  0  0  0  0
    4.7840    4.9300   15.2340 C   0  0  0  0  0  0  0  0  0  0  0  0
    6.0310    5.0320   14.4140 C   0  0  0  0  0  0  0  0  0  0  0  0
    6.9250    5.8970   15.0360 C   0  0  0  0  0  0  0  0  0  0  0  0
    8.1700    6.1760   14.5060 C   0  0  0  0  0  0  0  0  0  0  0  0
    8.5150    5.5570   13.3020 C   0  0  0  0  0  0  0  0  0  0  0  0
    7.6200    4.6790   12.6630 C   0  0  0  0  0  0  0  0  0  0  0  0
    6.3570    4.3990   13.2150 C   0  0  0  0  0  0  0  0  0  0  0  0
    6.3150    6.3890   16.2820 C   0  0  0  0  0  0  0  0  0  0  0  0
    6.9330    7.0990   17.0540 O   0  0  0  0  0  0  0  0  0  0  0  0
    3.9130    5.2810   14.6690 H   0  0  0  0  0  0  0  0  0  0  0  0
    4.6480    3.9090   15.6080 H   0  0  0  0  0  0  0  0  0  0  0  0
    8.8540    6.8450   15.0200 H   0  0  0  0  0  0  0  0  0  0  0  0
    9.4890    5.7490   12.8570 H   0  0  0  0  0  0  0  0  0  0  0  0
    7.9230    4.2050   11.7310 H   0  0  0  0  0  0  0  0  0  0  0  0
    5.3870    3.4540   12.5600 C   0  0  0  0  0  0  0  0  0  0  0  0
    5.9710    2.5120   11.7740 F   0  0  0  0  0  0  0  0  0  0  0  0
    4.4910    4.1120   11.7710 F   0  0  0  0  0  0  0  0  0  0  0  0
    4.6500    2.7690   13.4750 F   0  0  0  0  0  0  0  0  0  0  0  0
    1.3380   11.0250   18.9980 C   0  0  0  0  0  0  0  0  0  0  0  0
    2.3850   11.6740   18.3570 C   0  0  0  0  0  0  0  0  0  0  0  0
    2.3220   13.0570   18.1440 C   0  0  0  0  0  0  0  0  0  0  0  0
    1.1690   13.7100   18.6090 C   0  0  0  0  0  0  0  0  0  0  0  0
    0.1400   13.0010   19.2440 C   0  0  0  0  0  0  0  0  0  0  0  0
    0.2190   11.6560   19.4450 N   0  0  0  0  0  0  0  0  0  0  0  0
    3.2550   11.1080   18.0340 H   0  0  0  0  0  0  0  0  0  0  0  0
    1.0730   14.7870   18.4920 H   0  0  0  0  0  0  0  0  0  0  0  0
    3.4770   13.7670   17.4670 C   0  0  0  0  0  0  0  0  0  0  0  0
    3.7020   15.2560   17.5450 C   0  0  0  0  0  0  0  0  0  0  0  0
    4.5940   14.3280   18.3160 C   0  0  0  0  0  0  0  0  0  0  0  0
    3.7840   13.3260   16.5170 H   0  0  0  0  0  0  0  0  0  0  0  0
    3.0150   15.8860   18.0950 H   0  0  0  0  0  0  0  0  0  0  0  0
    4.1190   15.7460   16.6720 H   0  0  0  0  0  0  0  0  0  0  0  0
    4.4980   14.3080   19.3940 H   0  0  0  0  0  0  0  0  0  0  0  0
    5.6130   14.1880   17.9670 H   0  0  0  0  0  0  0  0  0  0  0  0
   -1.0740   13.7540   19.7730 C   0  0  0  0  0  0  0  0  0  0  0  0
   -2.2510   13.2180   19.3390 F   0  0  0  0  0  0  0  0  0  0  0  0
   -1.0950   15.0650   19.4020 F   0  0  0  0  0  0  0  0  0  0  0  0
   -1.1570   13.7570   21.1380 F   0  0  0  0  0  0  0  0  0  0  0  0
    1.9300    4.1090   19.8520 C   0  0  2  0  0  0  0  0  0  0  0  0
    1.7170    3.3070   19.1290 H   0  0  0  0  0  0  0  0  0  0  0  0
    0.5740    4.4030   20.5100 C   0  0  0  0  0  0  0  0  0  0  0  0
    0.1900    3.5530   21.0830 H   0  0  0  0  0  0  0  0  0  0  0  0
    0.6490    5.2600   21.1880 H   0  0  0  0  0  0  0  0  0  0  0  0
   -0.1740    4.6520   19.7490 H   0  0  0  0  0  0  0  0  0  0  0  0
    2.9450    3.5230   20.8610 C   0  0  0  0  0  0  0  0  0  0  0  0
    3.6620    4.3070   21.1350 H   0  0  0  0  0  0  0  0  0  0  0  0
    2.4350    3.2510   21.7950 H   0  0  0  0  0  0  0  0  0  0  0  0
    3.6690    2.3110   20.3680 C   0  0  0  0  0  0  0  0  0  0  0  0
    4.8630    1.9040   20.7550 N   0  0  0  0  0  0  0  0  0  0  0  0
    5.1860    0.7680   20.0500 N   0  0  0  0  0  0  0  0  0  0  0  0
    4.1910    0.5130   19.2360 C   0  0  0  0  0  0  0  0  0  0  0  0
    3.2150    1.4500   19.4010 N   0  0  0  0  0  0  0  0  0  0  0  0
    4.1390   -0.3080   18.5330 H   0  0  0  0  0  0  0  0  0  0  0  0
    1.9780    1.5170   18.6710 C   0  0  0  0  0  0  0  0  0  0  0  0
    1.3510    2.2930   19.1140 H   0  0  0  0  0  0  0  0  0  0  0  0
    1.4630    0.5560   18.7320 H   0  0  0  0  0  0  0  0  0  0  0  0
    2.2050    1.7440   17.6280 H   0  0  0  0  0  0  0  0  0  0  0  0
  1  2  1  0  0  0  0
  1 52  1  0  0  0  0
  2 11  1  0  0  0  0
  3  4  1  0  0  0  0
  3  2  2  0  0  0  0
  4  5  1  0  0  0  0
  5  6  2  0  0  0  0
  7  3  1  0  0  0  0
  8  7  2  0  0  0  0
  8  9  1  0  0  0  0
  9  1  2  0  0  0  0
 10  9  1  0  0  0  0
 12  4  1  0  0  0  0
 13  8  1  0  0  0  0
 14 24  1  0  0  0  0
 14 13  1  0  0  0  0
 15 16  1  0  0  0  0
 15 14  1  0  0  0  0
 16 21  1  0  0  0  0
 17 25  1  0  0  0  0
 17 16  2  0  0  0  0
 18 17  1  0  0  0  0
 19 20  1  0  0  0  0
 19 18  2  0  0  0  0
 20 15  2  0  0  0  0
 21 13  1  0  0  0  0
 21 22  2  0  0  0  0
 23 14  1  0  0  0  0
 26 18  1  0  0  0  0
 27 19  1  0  0  0  0
 28 20  1  0  0  0  0
 28 31  1  0  0  0  0
 29 28  1  0  0  0  0
 30 28  1  0  0  0  0
 32  5  1  0  0  0  0
 32 37  1  0  0  0  0
 33 32  2  0  0  0  0
 34 33  1  0  0  0  0
 34 35  2  0  0  0  0
 35 36  1  0  0  0  0
 36 37  2  0  0  0  0
 36 48  1  0  0  0  0
 38 33  1  0  0  0  0
 39 35  1  0  0  0  0
 40 41  1  0  0  0  0
 40 34  1  0  0  0  0
 40 42  1  0  0  0  0
 41 44  1  0  0  0  0
 41 42  1  0  0  0  0
 42 46  1  0  0  0  0
 43 40  1  0  0  0  0
 45 41  1  0  0  0  0
 47 42  1  0  0  0  0
 48 51  1  0  0  0  0
 49 48  1  0  0  0  0
 50 48  1  0  0  0  0
 52 53  1  6  0  0  0
 52 54  1  0  0  0  0
 52 58  1  0  0  0  0
 54 55  1  0  0  0  0
 54 56  1  0  0  0  0
 57 54  1  0  0  0  0
 58 59  1  0  0  0  0
 58 60  1  0  0  0  0
 61 62  2  0  0  0  0
 61 58  1  0  0  0  0
 63 62  1  0  0  0  0
 64 65  1  0  0  0  0
 64 63  2  0  0  0  0
 65 61  1  0  0  0  0
 66 64  1  0  0  0  0
 67 69  1  0  0  0  0
 67 68  1  0  0  0  0
 67 65  1  0  0  0  0
 70 67  1  0  0  0  0
M  END
>  <MODEL>
6

>  <REMARK>
 VINA RESULT:    -4.886      2.792     11.578
 INTER + INTRA:          -6.625
 INTER:                  -6.540
 INTRA:                  -0.085
 UNBOUND:                 0.832
  Name = 
  10 active torsions:
  status: ('A' for Active; 'I' for Inactive)
    1  A    between atoms: C_1  and  C_2
    2  A    between atoms: C_2  and  C_3
    3  A    between atoms: C_2  and  C_10
    4  A    between atoms: C_3  and  C_4
    5  A    between atoms: N_8  and  C_9
    6  A    between atoms: C_14  and  C_16
    7  A    between atoms: C_18  and  C_19
    8  A    between atoms: C_23  and  C_24
    9  A    between atoms: C_30  and  N_31
   10  A    between atoms: C_38  and  C_39
                            x       y       z     vdW  Elec       q    Type
                         _______ _______ _______ _____ _____    ______ ____

>  <TORSDO>
F 10

$$$$
=
 OpenBabel07192307433D

 70 75  0  0  1  0  0  0  0  0999 V2000
    3.0660   12.9330   18.1130 C   0  0  0  0  0  0  0  0  0  0  0  0
    3.4510   11.5950   17.9730 C   0  0  0  0  0  0  0  0  0  0  0  0
    2.5100   10.5960   18.1670 C   0  0  0  0  0  0  0  0  0  0  0  0
    2.7720    9.2390   18.0120 N   0  0  0  0  0  0  0  0  0  0  0  0
    3.9240    8.6120   17.6050 C   0  0  0  0  0  0  0  0  0  0  0  0
    4.9890    9.1410   17.3050 O   0  0  0  0  0  0  0  0  0  0  0  0
    1.2300   10.8570   18.5040 N   0  0  0  0  0  0  0  0  0  0  0  0
    0.8330   12.1510   18.6440 C   0  0  0  0  0  0  0  0  0  0  0  0
    1.7330   13.2010   18.4570 C   0  0  0  0  0  0  0  0  0  0  0  0
    1.3880   14.4800   18.6530 F   0  0  0  0  0  0  0  0  0  0  0  0
    4.4780   11.3440   17.7440 H   0  0  0  0  0  0  0  0  0  0  0  0
    1.9730    8.6400   18.2010 H   0  0  0  0  0  0  0  0  0  0  0  0
   -0.5210   12.3240   19.0030 N   0  0  0  0  0  0  0  0  0  0  0  0
   -1.5380   11.5560   18.3010 C   0  0  0  0  0  0  0  0  0  0  0  0
   -2.8060   11.9790   18.9710 C   0  0  0  0  0  0  0  0  0  0  0  0
   -2.5210   12.9330   19.9410 C   0  0  0  0  0  0  0  0  0  0  0  0
   -3.5060   13.5140   20.7170 C   0  0  0  0  0  0  0  0  0  0  0  0
   -4.8250   13.1070   20.4990 C   0  0  0  0  0  0  0  0  0  0  0  0
   -5.1270   12.1430   19.5200 C   0  0  0  0  0  0  0  0  0  0  0  0
   -4.1160   11.5630   18.7330 C   0  0  0  0  0  0  0  0  0  0  0  0
   -1.0700   13.1820   19.9460 C   0  0  0  0  0  0  0  0  0  0  0  0
   -0.5750   14.0420   20.6510 O   0  0  0  0  0  0  0  0  0  0  0  0
   -1.3550   10.4850   18.4480 H   0  0  0  0  0  0  0  0  0  0  0  0
   -1.5500   11.8280   17.2400 H   0  0  0  0  0  0  0  0  0  0  0  0
   -3.2570   14.2680   21.4580 H   0  0  0  0  0  0  0  0  0  0  0  0
   -5.6280   13.5460   21.0880 H   0  0  0  0  0  0  0  0  0  0  0  0
   -6.1670   11.8540   19.3680 H   0  0  0  0  0  0  0  0  0  0  0  0
   -4.4130   10.5400   17.6700 C   0  0  0  0  0  0  0  0  0  0  0  0
   -3.3080    9.9850   17.1070 F   0  0  0  0  0  0  0  0  0  0  0  0
   -5.1420   11.0700   16.6460 F   0  0  0  0  0  0  0  0  0  0  0  0
   -5.1450    9.5020   18.1550 F   0  0  0  0  0  0  0  0  0  0  0  0
    3.7710    7.1210   17.5180 C   0  0  0  0  0  0  0  0  0  0  0  0
    2.7020    6.4910   18.1400 C   0  0  0  0  0  0  0  0  0  0  0  0
    2.5850    5.0960   18.0810 C   0  0  0  0  0  0  0  0  0  0  0  0
    3.5900    4.4130   17.3780 C   0  0  0  0  0  0  0  0  0  0  0  0
    4.6440    5.1040   16.7650 C   0  0  0  0  0  0  0  0  0  0  0  0
    4.7430    6.4600   16.8330 N   0  0  0  0  0  0  0  0  0  0  0  0
    1.9660    7.0810   18.6790 H   0  0  0  0  0  0  0  0  0  0  0  0
    3.5650    3.3270   17.3170 H   0  0  0  0  0  0  0  0  0  0  0  0
    1.4300    4.4080   18.7820 C   0  0  0  0  0  0  0  0  0  0  0  0
    1.0620    2.9620   18.5600 C   0  0  0  0  0  0  0  0  0  0  0  0
    1.7260    3.3720   19.8410 C   0  0  0  0  0  0  0  0  0  0  0  0
    0.5730    5.0540   18.9810 H   0  0  0  0  0  0  0  0  0  0  0  0
    1.6220    2.3550   17.8610 H   0  0  0  0  0  0  0  0  0  0  0  0
    0.0100    2.7020   18.5980 H   0  0  0  0  0  0  0  0  0  0  0  0
    2.7500    3.0630   20.0060 H   0  0  0  0  0  0  0  0  0  0  0  0
    1.1260    3.3910   20.7470 H   0  0  0  0  0  0  0  0  0  0  0  0
    5.7380    4.3210   16.0480 C   0  0  0  0  0  0  0  0  0  0  0  0
    5.3790    3.0290   15.8000 F   0  0  0  0  0  0  0  0  0  0  0  0
    6.9030    4.2620   16.7520 F   0  0  0  0  0  0  0  0  0  0  0  0
    6.0700    4.8470   14.8300 F   0  0  0  0  0  0  0  0  0  0  0  0
    4.0320   14.0970   17.9430 C   0  0  2  0  0  0  0  0  0  0  0  0
    3.7470   14.5820   16.9970 H   0  0  0  0  0  0  0  0  0  0  0  0
    5.4980   13.6900   17.7410 C   0  0  0  0  0  0  0  0  0  0  0  0
    6.2000   14.4540   18.0900 H   0  0  0  0  0  0  0  0  0  0  0  0
    5.7210   12.7600   18.2740 H   0  0  0  0  0  0  0  0  0  0  0  0
    5.7040   13.5160   16.6790 H   0  0  0  0  0  0  0  0  0  0  0  0
    3.8780   15.1730   19.0430 C   0  0  0  0  0  0  0  0  0  0  0  0
    4.2030   16.1390   18.6380 H   0  0  0  0  0  0  0  0  0  0  0  0
    2.8170   15.3030   19.2990 H   0  0  0  0  0  0  0  0  0  0  0  0
    4.6170   14.8690   20.3070 C   0  0  0  0  0  0  0  0  0  0  0  0
    5.9270   14.8670   20.4650 N   0  0  0  0  0  0  0  0  0  0  0  0
    6.2090   14.5130   21.7630 N   0  0  0  0  0  0  0  0  0  0  0  0
    5.0680   14.2900   22.3680 C   0  0  0  0  0  0  0  0  0  0  0  0
    4.0420   14.5030   21.4980 N   0  0  0  0  0  0  0  0  0  0  0  0
    4.9440   13.9790   23.3970 H   0  0  0  0  0  0  0  0  0  0  0  0
    2.6430   14.3400   21.7870 C   0  0  0  0  0  0  0  0  0  0  0  0
    2.4780   14.5370   22.8480 H   0  0  0  0  0  0  0  0  0  0  0  0
    2.3370   13.3160   21.5570 H   0  0  0  0  0  0  0  0  0  0  0  0
    2.0780   15.0370   21.1660 H   0  0  0  0  0  0  0  0  0  0  0  0
  1  9  1  0  0  0  0
  2  1  2  0  0  0  0
  2  3  1  0  0  0  0
  3  7  2  0  0  0  0
  4  3  1  0  0  0  0
  4 12  1  0  0  0  0
  5  4  1  0  0  0  0
  6  5  2  0  0  0  0
  7  8  1  0  0  0  0
  8 13  1  0  0  0  0
  9  8  2  0  0  0  0
  9 10  1  0  0  0  0
 11  2  1  0  0  0  0
 13 21  1  0  0  0  0
 14 23  1  0  0  0  0
 14 15  1  0  0  0  0
 14 13  1  0  0  0  0
 15 16  1  0  0  0  0
 16 21  1  0  0  0  0
 16 17  2  0  0  0  0
 17 25  1  0  0  0  0
 18 17  1  0  0  0  0
 18 26  1  0  0  0  0
 19 18  2  0  0  0  0
 20 15  2  0  0  0  0
 20 19  1  0  0  0  0
 21 22  2  0  0  0  0
 24 14  1  0  0  0  0
 27 19  1  0  0  0  0
 28 31  1  0  0  0  0
 28 20  1  0  0  0  0
 29 28  1  0  0  0  0
 30 28  1  0  0  0  0
 32  5  1  0  0  0  0
 32 33  1  0  0  0  0
 33 38  1  0  0  0  0
 34 33  2  0  0  0  0
 34 40  1  0  0  0  0
 35 34  1  0  0  0  0
 36 37  1  0  0  0  0
 36 35  2  0  0  0  0
 37 32  2  0  0  0  0
 39 35  1  0  0  0  0
 40 43  1  0  0  0  0
 40 42  1  0  0  0  0
 41 45  1  0  0  0  0
 41 40  1  0  0  0  0
 41 42  1  0  0  0  0
 42 46  1  0  0  0  0
 42 47  1  0  0  0  0
 44 41  1  0  0  0  0
 48 50  1  0  0  0  0
 48 36  1  0  0  0  0
 49 48  1  0  0  0  0
 51 48  1  0  0  0  0
 52 53  1  6  0  0  0
 52  1  1  0  0  0  0
 52 58  1  0  0  0  0
 54 52  1  0  0  0  0
 54 55  1  0  0  0  0
 54 56  1  0  0  0  0
 57 54  1  0  0  0  0
 58 60  1  0  0  0  0
 58 61  1  0  0  0  0
 59 58  1  0  0  0  0
 61 62  2  0  0  0  0
 61 65  1  0  0  0  0
 62 63  1  0  0  0  0
 63 64  2  0  0  0  0
 64 66  1  0  0  0  0
 65 67  1  0  0  0  0
 65 64  1  0  0  0  0
 67 68  1  0  0  0  0
 69 67  1  0  0  0  0
 70 67  1  0  0  0  0
M  END
>  <MODEL>
7

>  <REMARK>
 VINA RESULT:    -4.612      2.028      2.504
 INTER + INTRA:          -6.206
 INTER:                  -6.019
 INTRA:                  -0.187
 UNBOUND:                 0.832
  Name = 
  10 active torsions:
  status: ('A' for Active; 'I' for Inactive)
    1  A    between atoms: C_1  and  C_2
    2  A    between atoms: C_2  and  C_3
    3  A    between atoms: C_2  and  C_10
    4  A    between atoms: C_3  and  C_4
    5  A    between atoms: N_8  and  C_9
    6  A    between atoms: C_14  and  C_16
    7  A    between atoms: C_18  and  C_19
    8  A    between atoms: C_23  and  C_24
    9  A    between atoms: C_30  and  N_31
   10  A    between atoms: C_38  and  C_39
                            x       y       z     vdW  Elec       q    Type
                         _______ _______ _______ _____ _____    ______ ____

>  <TORSDO>
F 10

$$$$
=
 OpenBabel07192307433D

 70 75  0  0  1  0  0  0  0  0999 V2000
   -1.7600   10.3140   17.3480 C   0  0  0  0  0  0  0  0  0  0  0  0
   -0.7360    9.3600   17.3720 C   0  0  0  0  0  0  0  0  0  0  0  0
    0.1860    9.3830   18.4060 C   0  0  0  0  0  0  0  0  0  0  0  0
    1.2160    8.4600   18.5510 N   0  0  0  0  0  0  0  0  0  0  0  0
    1.5100    7.3520   17.7950 C   0  0  0  0  0  0  0  0  0  0  0  0
    0.9140    6.9560   16.7990 O   0  0  0  0  0  0  0  0  0  0  0  0
    0.1530   10.3030   19.3920 N   0  0  0  0  0  0  0  0  0  0  0  0
   -0.8350   11.2390   19.3890 C   0  0  0  0  0  0  0  0  0  0  0  0
   -1.7970   11.2650   18.3790 C   0  0  0  0  0  0  0  0  0  0  0  0
   -2.7390   12.2130   18.3140 F   0  0  0  0  0  0  0  0  0  0  0  0
   -0.6510    8.6310   16.5770 H   0  0  0  0  0  0  0  0  0  0  0  0
    1.8090    8.6250   19.3600 H   0  0  0  0  0  0  0  0  0  0  0  0
   -0.7860   12.1610   20.4580 N   0  0  0  0  0  0  0  0  0  0  0  0
   -1.8660   12.1670   21.4320 C   0  0  0  0  0  0  0  0  0  0  0  0
   -1.4470   13.2280   22.3980 C   0  0  0  0  0  0  0  0  0  0  0  0
   -0.2480   13.7910   21.9750 C   0  0  0  0  0  0  0  0  0  0  0  0
    0.3750   14.8090   22.6720 C   0  0  0  0  0  0  0  0  0  0  0  0
   -0.2410   15.2650   23.8410 C   0  0  0  0  0  0  0  0  0  0  0  0
   -1.4540   14.7040   24.2790 C   0  0  0  0  0  0  0  0  0  0  0  0
   -2.0810   13.6710   23.5580 C   0  0  0  0  0  0  0  0  0  0  0  0
    0.1630   13.1390   20.7210 C   0  0  0  0  0  0  0  0  0  0  0  0
    1.1410   13.5140   20.1010 O   0  0  0  0  0  0  0  0  0  0  0  0
   -1.9220   11.1890   21.9230 H   0  0  0  0  0  0  0  0  0  0  0  0
   -2.8110   12.4360   20.9450 H   0  0  0  0  0  0  0  0  0  0  0  0
    1.3040   15.2410   22.3110 H   0  0  0  0  0  0  0  0  0  0  0  0
    0.2190   16.0680   24.4130 H   0  0  0  0  0  0  0  0  0  0  0  0
   -1.9130   15.0880   25.1890 H   0  0  0  0  0  0  0  0  0  0  0  0
   -3.3850   13.0630   23.9970 C   0  0  0  0  0  0  0  0  0  0  0  0
   -3.8070   13.4750   25.2210 F   0  0  0  0  0  0  0  0  0  0  0  0
   -3.3180   11.7020   24.0510 F   0  0  0  0  0  0  0  0  0  0  0  0
   -4.3970   13.3560   23.1370 F   0  0  0  0  0  0  0  0  0  0  0  0
    2.6850    6.5830   18.3270 C   0  0  0  0  0  0  0  0  0  0  0  0
    2.5060    5.6370   19.3260 C   0  0  0  0  0  0  0  0  0  0  0  0
    3.6120    4.9470   19.8400 C   0  0  0  0  0  0  0  0  0  0  0  0
    4.8620    5.2730   19.2910 C   0  0  0  0  0  0  0  0  0  0  0  0
    4.9810    6.2340   18.2780 C   0  0  0  0  0  0  0  0  0  0  0  0
    3.8960    6.8970   17.7920 N   0  0  0  0  0  0  0  0  0  0  0  0
    1.5090    5.4430   19.7150 H   0  0  0  0  0  0  0  0  0  0  0  0
    5.7610    4.7870   19.6650 H   0  0  0  0  0  0  0  0  0  0  0  0
    3.4170    3.9320   20.9490 C   0  0  0  0  0  0  0  0  0  0  0  0
    2.0650    3.4270   21.3880 C   0  0  0  0  0  0  0  0  0  0  0  0
    2.9700    2.5330   20.5930 C   0  0  0  0  0  0  0  0  0  0  0  0
    4.1430    4.0030   21.7590 H   0  0  0  0  0  0  0  0  0  0  0  0
    1.1630    3.7950   20.9180 H   0  0  0  0  0  0  0  0  0  0  0  0
    1.9320    3.2020   22.4410 H   0  0  0  0  0  0  0  0  0  0  0  0
    2.6970    2.3100   19.5700 H   0  0  0  0  0  0  0  0  0  0  0  0
    3.4520    1.7050   21.1050 H   0  0  0  0  0  0  0  0  0  0  0  0
    6.3620    6.5900   17.7400 C   0  0  0  0  0  0  0  0  0  0  0  0
    7.3440    6.4300   18.6730 F   0  0  0  0  0  0  0  0  0  0  0  0
    6.4540    7.8810   17.3120 F   0  0  0  0  0  0  0  0  0  0  0  0
    6.7430    5.8220   16.6750 F   0  0  0  0  0  0  0  0  0  0  0  0
   -2.8040   10.3830   16.2430 C   0  0  2  0  0  0  0  0  0  0  0  0
   -2.7370   11.4030   15.8370 H   0  0  0  0  0  0  0  0  0  0  0  0
   -4.2570   10.2560   16.7240 C   0  0  0  0  0  0  0  0  0  0  0  0
   -4.9790   10.3110   15.9030 H   0  0  0  0  0  0  0  0  0  0  0  0
   -4.4120    9.3050   17.2440 H   0  0  0  0  0  0  0  0  0  0  0  0
   -4.4990   11.0580   17.4290 H   0  0  0  0  0  0  0  0  0  0  0  0
   -2.5010    9.4280   15.0660 C   0  0  0  0  0  0  0  0  0  0  0  0
   -1.4510    9.5520   14.7740 H   0  0  0  0  0  0  0  0  0  0  0  0
   -2.5930    8.3830   15.3930 H   0  0  0  0  0  0  0  0  0  0  0  0
   -3.3920    9.6140   13.8790 C   0  0  0  0  0  0  0  0  0  0  0  0
   -4.6910    9.8390   13.9060 N   0  0  0  0  0  0  0  0  0  0  0  0
   -5.1460    9.9240   12.6110 N   0  0  0  0  0  0  0  0  0  0  0  0
   -4.1180    9.7340   11.8190 C   0  0  0  0  0  0  0  0  0  0  0  0
   -2.9970    9.5390   12.5670 N   0  0  0  0  0  0  0  0  0  0  0  0
   -4.1430    9.7260   10.7370 H   0  0  0  0  0  0  0  0  0  0  0  0
   -1.6780    9.2780   12.0570 C   0  0  0  0  0  0  0  0  0  0  0  0
   -1.7130    9.2960   10.9670 H   0  0  0  0  0  0  0  0  0  0  0  0
   -1.3430    8.2930   12.3930 H   0  0  0  0  0  0  0  0  0  0  0  0
   -1.0010   10.0430   12.4410 H   0  0  0  0  0  0  0  0  0  0  0  0
  1  2  2  0  0  0  0
  1  9  1  0  0  0  0
  2  3  1  0  0  0  0
  3  4  1  0  0  0  0
  3  7  2  0  0  0  0
  4 12  1  0  0  0  0
  5 32  1  0  0  0  0
  5  4  1  0  0  0  0
  6  5  2  0  0  0  0
  8  7  1  0  0  0  0
  8 13  1  0  0  0  0
  9  8  2  0  0  0  0
 10  9  1  0  0  0  0
 11  2  1  0  0  0  0
 13 21  1  0  0  0  0
 13 14  1  0  0  0  0
 14 23  1  0  0  0  0
 14 15  1  0  0  0  0
 15 20  1  0  0  0  0
 16 15  2  0  0  0  0
 16 17  1  0  0  0  0
 17 18  2  0  0  0  0
 18 19  1  0  0  0  0
 18 26  1  0  0  0  0
 19 27  1  0  0  0  0
 20 28  1  0  0  0  0
 20 19  2  0  0  0  0
 21 16  1  0  0  0  0
 22 21  2  0  0  0  0
 24 14  1  0  0  0  0
 25 17  1  0  0  0  0
 28 30  1  0  0  0  0
 28 29  1  0  0  0  0
 31 28  1  0  0  0  0
 32 33  1  0  0  0  0
 33 38  1  0  0  0  0
 33 34  2  0  0  0  0
 34 40  1  0  0  0  0
 35 39  1  0  0  0  0
 35 34  1  0  0  0  0
 36 35  2  0  0  0  0
 37 36  1  0  0  0  0
 37 32  2  0  0  0  0
 40 41  1  0  0  0  0
 40 43  1  0  0  0  0
 41 45  1  0  0  0  0
 42 40  1  0  0  0  0
 42 47  1  0  0  0  0
 42 41  1  0  0  0  0
 44 41  1  0  0  0  0
 46 42  1  0  0  0  0
 48 36  1  0  0  0  0
 48 49  1  0  0  0  0
 50 48  1  0  0  0  0
 51 48  1  0  0  0  0
 52 53  1  6  0  0  0
 52 54  1  0  0  0  0
 52  1  1  0  0  0  0
 54 56  1  0  0  0  0
 54 57  1  0  0  0  0
 55 54  1  0  0  0  0
 58 60  1  0  0  0  0
 58 52  1  0  0  0  0
 59 58  1  0  0  0  0
 61 62  2  0  0  0  0
 61 58  1  0  0  0  0
 63 62  1  0  0  0  0
 64 65  1  0  0  0  0
 64 63  2  0  0  0  0
 65 61  1  0  0  0  0
 66 64  1  0  0  0  0
 67 69  1  0  0  0  0
 67 70  1  0  0  0  0
 67 65  1  0  0  0  0
 68 67  1  0  0  0  0
M  END
>  <MODEL>
8

>  <REMARK>
 VINA RESULT:    -4.462      3.471      5.906
 INTER + INTRA:          -5.978
 INTER:                  -5.278
 INTRA:                  -0.700
 UNBOUND:                 0.832
  Name = 
  10 active torsions:
  status: ('A' for Active; 'I' for Inactive)
    1  A    between atoms: C_1  and  C_2
    2  A    between atoms: C_2  and  C_3
    3  A    between atoms: C_2  and  C_10
    4  A    between atoms: C_3  and  C_4
    5  A    between atoms: N_8  and  C_9
    6  A    between atoms: C_14  and  C_16
    7  A    between atoms: C_18  and  C_19
    8  A    between atoms: C_23  and  C_24
    9  A    between atoms: C_30  and  N_31
   10  A    between atoms: C_38  and  C_39
                            x       y       z     vdW  Elec       q    Type
                         _______ _______ _______ _____ _____    ______ ____

>  <TORSDO>
F 10

$$$$
=
 OpenBabel07192307433D

 70 75  0  0  1  0  0  0  0  0999 V2000
   -0.6930    9.7000   17.5180 C   0  0  0  0  0  0  0  0  0  0  0  0
    0.0440    8.5140   17.4180 C   0  0  0  0  0  0  0  0  0  0  0  0
    1.3270    8.4680   17.9380 C   0  0  0  0  0  0  0  0  0  0  0  0
    2.1300    7.3330   17.9310 N   0  0  0  0  0  0  0  0  0  0  0  0
    1.8450    6.0630   17.4930 C   0  0  0  0  0  0  0  0  0  0  0  0
    0.7980    5.6720   16.9880 O   0  0  0  0  0  0  0  0  0  0  0  0
    1.9120    9.5310   18.5280 N   0  0  0  0  0  0  0  0  0  0  0  0
    1.2140   10.6940   18.6380 C   0  0  0  0  0  0  0  0  0  0  0  0
   -0.0840   10.8010   18.1380 C   0  0  0  0  0  0  0  0  0  0  0  0
   -0.7700   11.9500   18.1730 F   0  0  0  0  0  0  0  0  0  0  0  0
   -0.3760    7.6520   16.9150 H   0  0  0  0  0  0  0  0  0  0  0  0
    3.0470    7.4720   18.3450 H   0  0  0  0  0  0  0  0  0  0  0  0
    1.9100   11.7510   19.2650 N   0  0  0  0  0  0  0  0  0  0  0  0
    3.0290   12.3660   18.5680 C   0  0  0  0  0  0  0  0  0  0  0  0
    3.4700   13.4370   19.5140 C   0  0  0  0  0  0  0  0  0  0  0  0
    2.6830   13.3960   20.6590 C   0  0  0  0  0  0  0  0  0  0  0  0
    2.8700   14.2680   21.7150 C   0  0  0  0  0  0  0  0  0  0  0  0
    3.8910   15.2160   21.5980 C   0  0  0  0  0  0  0  0  0  0  0  0
    4.6950   15.2670   20.4450 C   0  0  0  0  0  0  0  0  0  0  0  0
    4.4980   14.3700   19.3790 C   0  0  0  0  0  0  0  0  0  0  0  0
    1.7070   12.3020   20.5220 C   0  0  0  0  0  0  0  0  0  0  0  0
    0.9540   12.0050   21.4310 O   0  0  0  0  0  0  0  0  0  0  0  0
    2.6810   12.7960   17.6230 H   0  0  0  0  0  0  0  0  0  0  0  0
    3.8270   11.6310   18.4150 H   0  0  0  0  0  0  0  0  0  0  0  0
    2.2500   14.2050   22.6040 H   0  0  0  0  0  0  0  0  0  0  0  0
    4.0710   15.9160   22.4110 H   0  0  0  0  0  0  0  0  0  0  0  0
    5.4890   16.0110   20.3890 H   0  0  0  0  0  0  0  0  0  0  0  0
    5.3520   14.3950   18.1410 C   0  0  0  0  0  0  0  0  0  0  0  0
    6.5800   14.9470   18.3220 F   0  0  0  0  0  0  0  0  0  0  0  0
    4.7610   15.0940   17.1300 F   0  0  0  0  0  0  0  0  0  0  0  0
    5.5750   13.1450   17.6540 F   0  0  0  0  0  0  0  0  0  0  0  0
    2.9790    5.1050   17.7160 C   0  0  0  0  0  0  0  0  0  0  0  0
    4.2420    5.3900   17.2170 C   0  0  0  0  0  0  0  0  0  0  0  0
    5.2880    4.4750   17.4020 C   0  0  0  0  0  0  0  0  0  0  0  0
    4.9720    3.2980   18.0990 C   0  0  0  0  0  0  0  0  0  0  0  0
    3.6790    3.0680   18.5860 C   0  0  0  0  0  0  0  0  0  0  0  0
    2.6740    3.9670   18.3950 N   0  0  0  0  0  0  0  0  0  0  0  0
    4.4130    6.3160   16.6740 H   0  0  0  0  0  0  0  0  0  0  0  0
    5.7380    2.5400   18.2540 H   0  0  0  0  0  0  0  0  0  0  0  0
    6.6600    4.7770   16.8340 C   0  0  0  0  0  0  0  0  0  0  0  0
    7.3690    6.0950   17.0230 C   0  0  0  0  0  0  0  0  0  0  0  0
    7.8370    4.8850   17.7750 C   0  0  0  0  0  0  0  0  0  0  0  0
    6.8670    4.3020   15.8740 H   0  0  0  0  0  0  0  0  0  0  0  0
    6.8980    6.8960   17.5770 H   0  0  0  0  0  0  0  0  0  0  0  0
    7.9880    6.4520   16.2070 H   0  0  0  0  0  0  0  0  0  0  0  0
    7.6630    4.8500   18.8430 H   0  0  0  0  0  0  0  0  0  0  0  0
    8.7710    4.4200   17.4710 H   0  0  0  0  0  0  0  0  0  0  0  0
    3.3680    1.7570   19.2990 C   0  0  0  0  0  0  0  0  0  0  0  0
    4.0410    1.6320   20.4790 F   0  0  0  0  0  0  0  0  0  0  0  0
    3.6890    0.6570   18.5630 F   0  0  0  0  0  0  0  0  0  0  0  0
    2.0460    1.6140   19.6170 F   0  0  0  0  0  0  0  0  0  0  0  0
   -2.0990    9.8540   16.9580 C   0  0  2  0  0  0  0  0  0  0  0  0
   -2.2510    8.9860   16.2970 H   0  0  0  0  0  0  0  0  0  0  0  0
   -2.2970   11.0710   16.0440 C   0  0  0  0  0  0  0  0  0  0  0  0
   -2.6470   11.9540   16.5870 H   0  0  0  0  0  0  0  0  0  0  0  0
   -1.3610   11.3350   15.5410 H   0  0  0  0  0  0  0  0  0  0  0  0
   -3.0350   10.8500   15.2660 H   0  0  0  0  0  0  0  0  0  0  0  0
   -3.1950    9.7650   18.0450 C   0  0  0  0  0  0  0  0  0  0  0  0
   -3.9440    9.0280   17.7310 H   0  0  0  0  0  0  0  0  0  0  0  0
   -2.7690    9.3710   18.9790 H   0  0  0  0  0  0  0  0  0  0  0  0
   -3.8540   11.0690   18.3600 C   0  0  0  0  0  0  0  0  0  0  0  0
   -4.8420   11.6280   17.6870 N   0  0  0  0  0  0  0  0  0  0  0  0
   -5.1470   12.8320   18.2790 N   0  0  0  0  0  0  0  0  0  0  0  0
   -4.3300   12.9910   19.2910 C   0  0  0  0  0  0  0  0  0  0  0  0
   -3.5040   11.9120   19.3850 N   0  0  0  0  0  0  0  0  0  0  0  0
   -4.3010   13.8450   19.9560 H   0  0  0  0  0  0  0  0  0  0  0  0
   -2.4580   11.7320   20.3560 C   0  0  0  0  0  0  0  0  0  0  0  0
   -2.1740   12.7090   20.7510 H   0  0  0  0  0  0  0  0  0  0  0  0
   -1.5910   11.2670   19.8800 H   0  0  0  0  0  0  0  0  0  0  0  0
   -2.8320   11.0810   21.1480 H   0  0  0  0  0  0  0  0  0  0  0  0
  1  9  1  0  0  0  0
  2  1  2  0  0  0  0
  2  3  1  0  0  0  0
  3  7  2  0  0  0  0
  4  3  1  0  0  0  0
  4 12  1  0  0  0  0
  5 32  1  0  0  0  0
  5  4  1  0  0  0  0
  6  5  2  0  0  0  0
  7  8  1  0  0  0  0
  8 13  1  0  0  0  0
  9 10  1  0  0  0  0
  9  8  2  0  0  0  0
 11  2  1  0  0  0  0
 13 21  1  0  0  0  0
 14 13  1  0  0  0  0
 14 15  1  0  0  0  0
 15 16  1  0  0  0  0
 16 17  2  0  0  0  0
 17 25  1  0  0  0  0
 18 17  1  0  0  0  0
 18 26  1  0  0  0  0
 19 18  2  0  0  0  0
 20 15  2  0  0  0  0
 20 19  1  0  0  0  0
 21 16  1  0  0  0  0
 21 22  2  0  0  0  0
 23 14  1  0  0  0  0
 24 14  1  0  0  0  0
 27 19  1  0  0  0  0
 28 29  1  0  0  0  0
 28 20  1  0  0  0  0
 30 28  1  0  0  0  0
 31 28  1  0  0  0  0
 32 37  1  0  0  0  0
 33 34  1  0  0  0  0
 33 32  2  0  0  0  0
 34 35  2  0  0  0  0
 35 39  1  0  0  0  0
 35 36  1  0  0  0  0
 36 48  1  0  0  0  0
 37 36  2  0  0  0  0
 38 33  1  0  0  0  0
 40 41  1  0  0  0  0
 40 34  1  0  0  0  0
 40 42  1  0  0  0  0
 41 44  1  0  0  0  0
 41 42  1  0  0  0  0
 42 46  1  0  0  0  0
 43 40  1  0  0  0  0
 45 41  1  0  0  0  0
 47 42  1  0  0  0  0
 48 51  1  0  0  0  0
 48 49  1  0  0  0  0
 50 48  1  0  0  0  0
 52 53  1  6  0  0  0
 52  1  1  0  0  0  0
 52 58  1  0  0  0  0
 54 55  1  0  0  0  0
 54 52  1  0  0  0  0
 56 54  1  0  0  0  0
 57 54  1  0  0  0  0
 58 61  1  0  0  0  0
 58 60  1  0  0  0  0
 59 58  1  0  0  0  0
 61 65  1  0  0  0  0
 62 63  1  0  0  0  0
 62 61  2  0  0  0  0
 63 64  2  0  0  0  0
 64 65  1  0  0  0  0
 64 66  1  0  0  0  0
 65 67  1  0  0  0  0
 67 68  1  0  0  0  0
 67 70  1  0  0  0  0
 69 67  1  0  0  0  0
M  END
>  <MODEL>
9

>  <REMARK>
 VINA RESULT:    -4.346      2.952      6.539
 INTER + INTRA:          -5.801
 INTER:                  -5.312
 INTRA:                  -0.489
 UNBOUND:                 0.832
  Name = 
  10 active torsions:
  status: ('A' for Active; 'I' for Inactive)
    1  A    between atoms: C_1  and  C_2
    2  A    between atoms: C_2  and  C_3
    3  A    between atoms: C_2  and  C_10
    4  A    between atoms: C_3  and  C_4
    5  A    between atoms: N_8  and  C_9
    6  A    between atoms: C_14  and  C_16
    7  A    between atoms: C_18  and  C_19
    8  A    between atoms: C_23  and  C_24
    9  A    between atoms: C_30  and  N_31
   10  A    between atoms: C_38  and  C_39
                            x       y       z     vdW  Elec       q    Type
                         _______ _______ _______ _____ _____    ______ ____

>  <TORSDO>
F 10

$$$$
=
 OpenBabel07192307433D

 70 75  0  0  1  0  0  0  0  0999 V2000
   -1.7840   10.2530   17.3820 C   0  0  0  0  0  0  0  0  0  0  0  0
   -0.7810    9.2780   17.4300 C   0  0  0  0  0  0  0  0  0  0  0  0
    0.1300    9.2950   18.4740 C   0  0  0  0  0  0  0  0  0  0  0  0
    1.1390    8.3520   18.6420 N   0  0  0  0  0  0  0  0  0  0  0  0
    1.4170    7.2280   17.9040 C   0  0  0  0  0  0  0  0  0  0  0  0
    0.8230    6.8320   16.9070 O   0  0  0  0  0  0  0  0  0  0  0  0
    0.1060   10.2290   19.4470 N   0  0  0  0  0  0  0  0  0  0  0  0
   -0.8610   11.1860   19.4210 C   0  0  0  0  0  0  0  0  0  0  0  0
   -1.8100   11.2190   18.3990 C   0  0  0  0  0  0  0  0  0  0  0  0
   -2.7320   12.1860   18.3120 F   0  0  0  0  0  0  0  0  0  0  0  0
   -0.7030    8.5370   16.6450 H   0  0  0  0  0  0  0  0  0  0  0  0
    1.7260    8.5150   19.4550 H   0  0  0  0  0  0  0  0  0  0  0  0
   -0.8030   12.1210   20.4770 N   0  0  0  0  0  0  0  0  0  0  0  0
   -1.8740   12.1370   21.4610 C   0  0  0  0  0  0  0  0  0  0  0  0
   -1.4470   13.2100   22.4110 C   0  0  0  0  0  0  0  0  0  0  0  0
   -0.2530   13.7710   21.9690 C   0  0  0  0  0  0  0  0  0  0  0  0
    0.3750   14.7970   22.6480 C   0  0  0  0  0  0  0  0  0  0  0  0
   -0.2310   15.2670   23.8170 C   0  0  0  0  0  0  0  0  0  0  0  0
   -1.4390   14.7090   24.2740 C   0  0  0  0  0  0  0  0  0  0  0  0
   -2.0710   13.6670   23.5710 C   0  0  0  0  0  0  0  0  0  0  0  0
    0.1470   13.1040   20.7200 C   0  0  0  0  0  0  0  0  0  0  0  0
    1.1190   13.4720   20.0860 O   0  0  0  0  0  0  0  0  0  0  0  0
   -1.9240   11.1650   21.9650 H   0  0  0  0  0  0  0  0  0  0  0  0
   -2.8230   12.3990   20.9810 H   0  0  0  0  0  0  0  0  0  0  0  0
    1.3000   15.2270   22.2740 H   0  0  0  0  0  0  0  0  0  0  0  0
    0.2330   16.0770   24.3760 H   0  0  0  0  0  0  0  0  0  0  0  0
   -1.8900   15.1030   25.1840 H   0  0  0  0  0  0  0  0  0  0  0  0
   -3.3700   13.0620   24.0300 C   0  0  0  0  0  0  0  0  0  0  0  0
   -4.4180   13.2960   23.1980 F   0  0  0  0  0  0  0  0  0  0  0  0
   -3.7420   13.5290   25.2570 F   0  0  0  0  0  0  0  0  0  0  0  0
   -3.2860   11.7110   24.1520 F   0  0  0  0  0  0  0  0  0  0  0  0
    2.5690    6.4410   18.4590 C   0  0  0  0  0  0  0  0  0  0  0  0
    3.8730    6.7970   18.1450 C   0  0  0  0  0  0  0  0  0  0  0  0
    4.9410    6.0380   18.6400 C   0  0  0  0  0  0  0  0  0  0  0  0
    4.6060    4.9360   19.4430 C   0  0  0  0  0  0  0  0  0  0  0  0
    3.2700    4.6280   19.7310 C   0  0  0  0  0  0  0  0  0  0  0  0
    2.2430    5.3760   19.2390 N   0  0  0  0  0  0  0  0  0  0  0  0
    4.0600    7.6570   17.5060 H   0  0  0  0  0  0  0  0  0  0  0  0
    5.3920    4.2960   19.8380 H   0  0  0  0  0  0  0  0  0  0  0  0
    6.3640    6.4140   18.2760 C   0  0  0  0  0  0  0  0  0  0  0  0
    7.5700    5.6020   18.6770 C   0  0  0  0  0  0  0  0  0  0  0  0
    7.1040    5.5850   17.2520 C   0  0  0  0  0  0  0  0  0  0  0  0
    6.5510    7.4880   18.2360 H   0  0  0  0  0  0  0  0  0  0  0  0
    7.4540    4.7040   19.2690 H   0  0  0  0  0  0  0  0  0  0  0  0
    8.4840    6.1410   18.9020 H   0  0  0  0  0  0  0  0  0  0  0  0
    6.6460    4.6780   16.8770 H   0  0  0  0  0  0  0  0  0  0  0  0
    7.6980    6.1110   16.5110 H   0  0  0  0  0  0  0  0  0  0  0  0
    2.9470    3.3970   20.5700 C   0  0  0  0  0  0  0  0  0  0  0  0
    1.7950    2.7830   20.1760 F   0  0  0  0  0  0  0  0  0  0  0  0
    2.7930    3.6770   21.8940 F   0  0  0  0  0  0  0  0  0  0  0  0
    3.9140    2.4320   20.5080 F   0  0  0  0  0  0  0  0  0  0  0  0
   -2.8140   10.3300   16.2650 C   0  0  2  0  0  0  0  0  0  0  0  0
   -2.8960   11.3980   16.0120 H   0  0  0  0  0  0  0  0  0  0  0  0
   -4.2370    9.9220   16.6740 C   0  0  0  0  0  0  0  0  0  0  0  0
   -4.8570   10.7790   16.9540 H   0  0  0  0  0  0  0  0  0  0  0  0
   -4.7400    9.3960   15.8560 H   0  0  0  0  0  0  0  0  0  0  0  0
   -4.2080    9.2420   17.5320 H   0  0  0  0  0  0  0  0  0  0  0  0
   -2.3580    9.6140   14.9730 C   0  0  0  0  0  0  0  0  0  0  0  0
   -1.3750   10.0060   14.6820 H   0  0  0  0  0  0  0  0  0  0  0  0
   -2.2010    8.5440   15.1700 H   0  0  0  0  0  0  0  0  0  0  0  0
   -3.3190    9.7320   13.8330 C   0  0  0  0  0  0  0  0  0  0  0  0
   -4.6150    9.9580   13.9250 N   0  0  0  0  0  0  0  0  0  0  0  0
   -5.1470    9.9700   12.6570 N   0  0  0  0  0  0  0  0  0  0  0  0
   -4.1680    9.7340   11.8170 C   0  0  0  0  0  0  0  0  0  0  0  0
   -3.0030    9.5820   12.5070 N   0  0  0  0  0  0  0  0  0  0  0  0
   -4.2570    9.6640   10.7410 H   0  0  0  0  0  0  0  0  0  0  0  0
   -1.7160    9.2910   11.9340 C   0  0  0  0  0  0  0  0  0  0  0  0
   -1.8520    9.0150   10.8870 H   0  0  0  0  0  0  0  0  0  0  0  0
   -1.2550    8.4570   12.4710 H   0  0  0  0  0  0  0  0  0  0  0  0
   -1.0870   10.1770   12.0290 H   0  0  0  0  0  0  0  0  0  0  0  0
  1  2  2  0  0  0  0
  1  9  1  0  0  0  0
  2  3  1  0  0  0  0
  3  4  1  0  0  0  0
  3  7  2  0  0  0  0
  4 12  1  0  0  0  0
  5 32  1  0  0  0  0
  5  4  1  0  0  0  0
  6  5  2  0  0  0  0
  8  7  1  0  0  0  0
  8 13  1  0  0  0  0
  9  8  2  0  0  0  0
 10  9  1  0  0  0  0
 11  2  1  0  0  0  0
 13 21  1  0  0  0  0
 13 14  1  0  0  0  0
 14 23  1  0  0  0  0
 14 15  1  0  0  0  0
 15 20  1  0  0  0  0
 16 15  2  0  0  0  0
 16 17  1  0  0  0  0
 17 18  2  0  0  0  0
 18 19  1  0  0  0  0
 18 26  1  0  0  0  0
 19 27  1  0  0  0  0
 20 28  1  0  0  0  0
 20 19  2  0  0  0  0
 21 16  1  0  0  0  0
 22 21  2  0  0  0  0
 24 14  1  0  0  0  0
 25 17  1  0  0  0  0
 28 31  1  0  0  0  0
 28 30  1  0  0  0  0
 29 28  1  0  0  0  0
 32 37  1  0  0  0  0
 33 32  2  0  0  0  0
 33 34  1  0  0  0  0
 34 35  2  0  0  0  0
 35 36  1  0  0  0  0
 35 39  1  0  0  0  0
 36 48  1  0  0  0  0
 37 36  2  0  0  0  0
 38 33  1  0  0  0  0
 40 34  1  0  0  0  0
 40 41  1  0  0  0  0
 41 45  1  0  0  0  0
 41 44  1  0  0  0  0
 42 40  1  0  0  0  0
 42 41  1  0  0  0  0
 43 40  1  0  0  0  0
 46 42  1  0  0  0  0
 47 42  1  0  0  0  0
 48 50  1  0  0  0  0
 49 48  1  0  0  0  0
 51 48  1  0  0  0  0
 52 53  1  6  0  0  0
 52 54  1  0  0  0  0
 52  1  1  0  0  0  0
 54 55  1  0  0  0  0
 54 57  1  0  0  0  0
 56 54  1  0  0  0  0
 58 60  1  0  0  0  0
 58 52  1  0  0  0  0
 59 58  1  0  0  0  0
 61 62  2  0  0  0  0
 61 58  1  0  0  0  0
 63 62  1  0  0  0  0
 64 65  1  0  0  0  0
 64 63  2  0  0  0  0
 65 61  1  0  0  0  0
 66 64  1  0  0  0  0
 67 70  1  0  0  0  0
 67 69  1  0  0  0  0
 67 65  1  0  0  0  0
 68 67  1  0  0  0  0
M  END
>  <MODEL>
10

>  <REMARK>
 VINA RESULT:    -4.297      3.694      6.273
 INTER + INTRA:          -5.727
 INTER:                  -5.028
 INTRA:                  -0.699
 UNBOUND:                 0.832
  Name = 
  10 active torsions:
  status: ('A' for Active; 'I' for Inactive)
    1  A    between atoms: C_1  and  C_2
    2  A    between atoms: C_2  and  C_3
    3  A    between atoms: C_2  and  C_10
    4  A    between atoms: C_3  and  C_4
    5  A    between atoms: N_8  and  C_9
    6  A    between atoms: C_14  and  C_16
    7  A    between atoms: C_18  and  C_19
    8  A    between atoms: C_23  and  C_24
    9  A    between atoms: C_30  and  N_31
   10  A    between atoms: C_38  and  C_39
                            x       y       z     vdW  Elec       q    Type
                         _______ _______ _______ _____ _____    ______ ____

>  <TORSDO>
F 10

$$$$
=
 OpenBabel07192307433D

 70 75  0  0  1  0  0  0  0  0999 V2000
   -0.9760    9.5220   17.5100 C   0  0  0  0  0  0  0  0  0  0  0  0
   -0.0890    8.4400   17.4680 C   0  0  0  0  0  0  0  0  0  0  0  0
    1.1070    8.5180   18.1630 C   0  0  0  0  0  0  0  0  0  0  0  0
    2.0410    7.4880   18.2240 N   0  0  0  0  0  0  0  0  0  0  0  0
    1.9800    6.2210   17.6980 C   0  0  0  0  0  0  0  0  0  0  0  0
    1.0690    5.7380   17.0340 O   0  0  0  0  0  0  0  0  0  0  0  0
    1.4690    9.6070   18.8720 N   0  0  0  0  0  0  0  0  0  0  0  0
    0.6210   10.6700   18.9290 C   0  0  0  0  0  0  0  0  0  0  0  0
   -0.6010   10.6510   18.2550 C   0  0  0  0  0  0  0  0  0  0  0  0
   -1.4240   11.7060   18.2390 F   0  0  0  0  0  0  0  0  0  0  0  0
   -0.3240    7.5650   16.8760 H   0  0  0  0  0  0  0  0  0  0  0  0
    2.8680    7.7120   18.7690 H   0  0  0  0  0  0  0  0  0  0  0  0
    1.0860   11.7640   19.6910 N   0  0  0  0  0  0  0  0  0  0  0  0
    0.1940   12.3720   20.6660 C   0  0  0  0  0  0  0  0  0  0  0  0
    1.0370   13.4440   21.2770 C   0  0  0  0  0  0  0  0  0  0  0  0
    2.2860   13.4550   20.6650 C   0  0  0  0  0  0  0  0  0  0  0  0
    3.2750   14.3530   21.0220 C   0  0  0  0  0  0  0  0  0  0  0  0
    2.9820   15.2670   22.0380 C   0  0  0  0  0  0  0  0  0  0  0  0
    1.7230   15.2670   22.6650 C   0  0  0  0  0  0  0  0  0  0  0  0
    0.7230   14.3510   22.2890 C   0  0  0  0  0  0  0  0  0  0  0  0
    2.3140   12.4080   19.6310 C   0  0  0  0  0  0  0  0  0  0  0  0
    3.2720   12.2700   18.8930 O   0  0  0  0  0  0  0  0  0  0  0  0
   -0.0950   11.6250   21.4150 H   0  0  0  0  0  0  0  0  0  0  0  0
   -0.6780   12.8040   20.1610 H   0  0  0  0  0  0  0  0  0  0  0  0
    4.2370   14.3490   20.5180 H   0  0  0  0  0  0  0  0  0  0  0  0
    3.7350   15.9920   22.3430 H   0  0  0  0  0  0  0  0  0  0  0  0
    1.5240   15.9980   23.4470 H   0  0  0  0  0  0  0  0  0  0  0  0
   -0.6360   14.3380   22.9330 C   0  0  0  0  0  0  0  0  0  0  0  0
   -1.0850   13.0990   23.2630 F   0  0  0  0  0  0  0  0  0  0  0  0
   -1.5860   14.8880   22.1240 F   0  0  0  0  0  0  0  0  0  0  0  0
   -0.6590   15.0610   24.0840 F   0  0  0  0  0  0  0  0  0  0  0  0
    3.1840    5.3940   18.0420 C   0  0  0  0  0  0  0  0  0  0  0  0
    4.4600    5.8810   17.7940 C   0  0  0  0  0  0  0  0  0  0  0  0
    5.5780    5.0890   18.0870 C   0  0  0  0  0  0  0  0  0  0  0  0
    5.3210    3.8180   18.6260 C   0  0  0  0  0  0  0  0  0  0  0  0
    4.0100    3.3820   18.8590 C   0  0  0  0  0  0  0  0  0  0  0  0
    2.9340    4.1640   18.5670 N   0  0  0  0  0  0  0  0  0  0  0  0
    4.5870    6.8710   17.3630 H   0  0  0  0  0  0  0  0  0  0  0  0
    6.1490    3.1500   18.8530 H   0  0  0  0  0  0  0  0  0  0  0  0
    6.9700    5.6150   17.7930 C   0  0  0  0  0  0  0  0  0  0  0  0
    7.4210    7.0140   18.1300 C   0  0  0  0  0  0  0  0  0  0  0  0
    7.9220    5.8560   18.9410 C   0  0  0  0  0  0  0  0  0  0  0  0
    7.4200    5.2150   16.8830 H   0  0  0  0  0  0  0  0  0  0  0  0
    6.7390    7.7130   18.5960 H   0  0  0  0  0  0  0  0  0  0  0  0
    8.1180    7.4920   17.4500 H   0  0  0  0  0  0  0  0  0  0  0  0
    7.5610    5.7510   19.9570 H   0  0  0  0  0  0  0  0  0  0  0  0
    8.9550    5.5480   18.8120 H   0  0  0  0  0  0  0  0  0  0  0  0
    3.7730    1.9790   19.4050 C   0  0  0  0  0  0  0  0  0  0  0  0
    2.8620    1.9590   20.4200 F   0  0  0  0  0  0  0  0  0  0  0  0
    4.9020    1.3980   19.8980 F   0  0  0  0  0  0  0  0  0  0  0  0
    3.2910    1.1080   18.4660 F   0  0  0  0  0  0  0  0  0  0  0  0
   -2.3010    9.5400   16.7620 C   0  0  2  0  0  0  0  0  0  0  0  0
   -2.3820    8.5530   16.2820 H   0  0  0  0  0  0  0  0  0  0  0  0
   -2.3690   10.5400   15.5990 C   0  0  0  0  0  0  0  0  0  0  0  0
   -3.0400   10.2130   14.8000 H   0  0  0  0  0  0  0  0  0  0  0  0
   -2.7140   11.5190   15.9480 H   0  0  0  0  0  0  0  0  0  0  0  0
   -1.3760   10.6820   15.1570 H   0  0  0  0  0  0  0  0  0  0  0  0
   -3.5220    9.6640   17.7020 C   0  0  0  0  0  0  0  0  0  0  0  0
   -4.2410    8.8750   17.4510 H   0  0  0  0  0  0  0  0  0  0  0  0
   -3.2210    9.4690   18.7410 H   0  0  0  0  0  0  0  0  0  0  0  0
   -4.1900   11.0020   17.6660 C   0  0  0  0  0  0  0  0  0  0  0  0
   -4.6130   11.6360   16.5890 N   0  0  0  0  0  0  0  0  0  0  0  0
   -5.1450   12.8440   16.9740 N   0  0  0  0  0  0  0  0  0  0  0  0
   -5.0220   12.9310   18.2760 C   0  0  0  0  0  0  0  0  0  0  0  0
   -4.4330   11.8000   18.7560 N   0  0  0  0  0  0  0  0  0  0  0  0
   -5.3310   13.7680   18.8890 H   0  0  0  0  0  0  0  0  0  0  0  0
   -4.1120   11.5350   20.1320 C   0  0  0  0  0  0  0  0  0  0  0  0
   -4.4580   12.3720   20.7410 H   0  0  0  0  0  0  0  0  0  0  0  0
   -3.0290   11.4300   20.2430 H   0  0  0  0  0  0  0  0  0  0  0  0
   -4.6010   10.6050   20.4280 H   0  0  0  0  0  0  0  0  0  0  0  0
  1  9  1  0  0  0  0
  2  1  2  0  0  0  0
  2  3  1  0  0  0  0
  3  4  1  0  0  0  0
  3  7  2  0  0  0  0
  4 12  1  0  0  0  0
  5 32  1  0  0  0  0
  5  4  1  0  0  0  0
  6  5  2  0  0  0  0
  7  8  1  0  0  0  0
  8 13  1  0  0  0  0
  9  8  2  0  0  0  0
 10  9  1  0  0  0  0
 11  2  1  0  0  0  0
 13 14  1  0  0  0  0
 14 15  1  0  0  0  0
 14 23  1  0  0  0  0
 15 20  1  0  0  0  0
 16 17  1  0  0  0  0
 16 15  2  0  0  0  0
 17 18  2  0  0  0  0
 18 26  1  0  0  0  0
 18 19  1  0  0  0  0
 19 27  1  0  0  0  0
 20 19  2  0  0  0  0
 20 28  1  0  0  0  0
 21 13  1  0  0  0  0
 21 16  1  0  0  0  0
 22 21  2  0  0  0  0
 24 14  1  0  0  0  0
 25 17  1  0  0  0  0
 28 29  1  0  0  0  0
 28 31  1  0  0  0  0
 30 28  1  0  0  0  0
 32 37  1  0  0  0  0
 33 32  2  0  0  0  0
 33 34  1  0  0  0  0
 34 35  2  0  0  0  0
 35 39  1  0  0  0  0
 35 36  1  0  0  0  0
 36 48  1  0  0  0  0
 37 36  2  0  0  0  0
 38 33  1  0  0  0  0
 40 34  1  0  0  0  0
 40 41  1  0  0  0  0
 40 42  1  0  0  0  0
 41 44  1  0  0  0  0
 41 42  1  0  0  0  0
 42 46  1  0  0  0  0
 43 40  1  0  0  0  0
 45 41  1  0  0  0  0
 47 42  1  0  0  0  0
 48 50  1  0  0  0  0
 48 49  1  0  0  0  0
 51 48  1  0  0  0  0
 52 53  1  6  0  0  0
 52  1  1  0  0  0  0
 52 58  1  0  0  0  0
 54 56  1  0  0  0  0
 54 52  1  0  0  0  0
 55 54  1  0  0  0  0
 57 54  1  0  0  0  0
 58 60  1  0  0  0  0
 59 58  1  0  0  0  0
 61 58  1  0  0  0  0
 61 65  1  0  0  0  0
 62 63  1  0  0  0  0
 62 61  2  0  0  0  0
 63 64  2  0  0  0  0
 64 65  1  0  0  0  0
 64 66  1  0  0  0  0
 65 67  1  0  0  0  0
 67 69  1  0  0  0  0
 67 70  1  0  0  0  0
 67 68  1  0  0  0  0
M  END
>  <MODEL>
11

>  <REMARK>
 VINA RESULT:    -4.271      2.753      5.740
 INTER + INTRA:          -5.686
 INTER:                  -5.402
 INTRA:                  -0.284
 UNBOUND:                 0.832
  Name = 
  10 active torsions:
  status: ('A' for Active; 'I' for Inactive)
    1  A    between atoms: C_1  and  C_2
    2  A    between atoms: C_2  and  C_3
    3  A    between atoms: C_2  and  C_10
    4  A    between atoms: C_3  and  C_4
    5  A    between atoms: N_8  and  C_9
    6  A    between atoms: C_14  and  C_16
    7  A    between atoms: C_18  and  C_19
    8  A    between atoms: C_23  and  C_24
    9  A    between atoms: C_30  and  N_31
   10  A    between atoms: C_38  and  C_39
                            x       y       z     vdW  Elec       q    Type
                         _______ _______ _______ _____ _____    ______ ____

>  <TORSDO>
F 10

$$$$
=
 OpenBabel07192307433D

 70 75  0  0  1  0  0  0  0  0999 V2000
    1.8000    5.1570   20.6260 C   0  0  0  0  0  0  0  0  0  0  0  0
    1.2410    6.4250   20.8180 C   0  0  0  0  0  0  0  0  0  0  0  0
    1.7430    7.5020   20.1050 C   0  0  0  0  0  0  0  0  0  0  0  0
    1.2360    8.7950   20.1870 N   0  0  0  0  0  0  0  0  0  0  0  0
    0.1600    9.2680   20.8960 C   0  0  0  0  0  0  0  0  0  0  0  0
   -0.5790    8.6280   21.6360 O   0  0  0  0  0  0  0  0  0  0  0  0
    2.7690    7.3860   19.2360 N   0  0  0  0  0  0  0  0  0  0  0  0
    3.3270    6.1620   19.0320 C   0  0  0  0  0  0  0  0  0  0  0  0
    2.8620    5.0380   19.7170 C   0  0  0  0  0  0  0  0  0  0  0  0
    3.4340    3.8350   19.5860 F   0  0  0  0  0  0  0  0  0  0  0  0
    0.4440    6.5670   21.5370 H   0  0  0  0  0  0  0  0  0  0  0  0
    1.7250    9.4680   19.6030 H   0  0  0  0  0  0  0  0  0  0  0  0
    4.3960    6.1400   18.1100 N   0  0  0  0  0  0  0  0  0  0  0  0
    5.4780    7.0990   18.2660 C   0  0  0  0  0  0  0  0  0  0  0  0
    6.4090    6.7450   17.1510 C   0  0  0  0  0  0  0  0  0  0  0  0
    5.8690    5.6970   16.4120 C   0  0  0  0  0  0  0  0  0  0  0  0
    6.5100    5.1650   15.3100 C   0  0  0  0  0  0  0  0  0  0  0  0
    7.7430    5.7160   14.9500 C   0  0  0  0  0  0  0  0  0  0  0  0
    8.3000    6.7760   15.6880 C   0  0  0  0  0  0  0  0  0  0  0  0
    7.6350    7.3120   16.8060 C   0  0  0  0  0  0  0  0  0  0  0  0
    4.5700    5.3270   16.9980 C   0  0  0  0  0  0  0  0  0  0  0  0
    3.8560    4.4890   16.4810 O   0  0  0  0  0  0  0  0  0  0  0  0
    5.9600    6.9530   19.2400 H   0  0  0  0  0  0  0  0  0  0  0  0
    5.0980    8.1190   18.1450 H   0  0  0  0  0  0  0  0  0  0  0  0
    6.0590    4.3560   14.7420 H   0  0  0  0  0  0  0  0  0  0  0  0
    8.2750    5.3250   14.0840 H   0  0  0  0  0  0  0  0  0  0  0  0
    9.2580    7.1890   15.3750 H   0  0  0  0  0  0  0  0  0  0  0  0
    8.2020    8.4540   17.6040 C   0  0  0  0  0  0  0  0  0  0  0  0
    8.7130    8.0920   18.8090 F   0  0  0  0  0  0  0  0  0  0  0  0
    7.2640    9.4120   17.8560 F   0  0  0  0  0  0  0  0  0  0  0  0
    9.2120    9.0820   16.9450 F   0  0  0  0  0  0  0  0  0  0  0  0
   -0.0870   10.7310   20.6650 C   0  0  0  0  0  0  0  0  0  0  0  0
   -1.2610   11.3210   21.1140 C   0  0  0  0  0  0  0  0  0  0  0  0
   -1.4980   12.6790   20.8660 C   0  0  0  0  0  0  0  0  0  0  0  0
   -0.5010   13.3680   20.1560 C   0  0  0  0  0  0  0  0  0  0  0  0
    0.6670   12.7210   19.7330 C   0  0  0  0  0  0  0  0  0  0  0  0
    0.8800   11.3990   19.9810 N   0  0  0  0  0  0  0  0  0  0  0  0
   -1.9970   10.7240   21.6470 H   0  0  0  0  0  0  0  0  0  0  0  0
   -0.6400   14.4200   19.9150 H   0  0  0  0  0  0  0  0  0  0  0  0
   -2.7920   13.3150   21.3360 C   0  0  0  0  0  0  0  0  0  0  0  0
   -3.5860   12.8140   22.5160 C   0  0  0  0  0  0  0  0  0  0  0  0
   -2.8010   14.0860   22.6350 C   0  0  0  0  0  0  0  0  0  0  0  0
   -3.4070   13.7300   20.5370 H   0  0  0  0  0  0  0  0  0  0  0  0
   -3.2530   11.9490   23.0740 H   0  0  0  0  0  0  0  0  0  0  0  0
   -4.6670   12.8910   22.4610 H   0  0  0  0  0  0  0  0  0  0  0  0
   -1.9150   14.0820   23.2580 H   0  0  0  0  0  0  0  0  0  0  0  0
   -3.3470   15.0250   22.6600 H   0  0  0  0  0  0  0  0  0  0  0  0
    1.7040   13.4950   18.9280 C   0  0  0  0  0  0  0  0  0  0  0  0
    2.8610   13.6960   19.6220 F   0  0  0  0  0  0  0  0  0  0  0  0
    1.2720   14.7300   18.5460 F   0  0  0  0  0  0  0  0  0  0  0  0
    2.0760   12.8620   17.7740 F   0  0  0  0  0  0  0  0  0  0  0  0
    1.3330    3.9200   21.3800 C   0  0  2  0  0  0  0  0  0  0  0  0
    0.5890    4.2800   22.1060 H   0  0  0  0  0  0  0  0  0  0  0  0
    2.4120    3.2450   22.2380 C   0  0  0  0  0  0  0  0  0  0  0  0
    3.0970    3.9640   22.6980 H   0  0  0  0  0  0  0  0  0  0  0  0
    1.9570    2.6540   23.0400 H   0  0  0  0  0  0  0  0  0  0  0  0
    3.0130    2.5610   21.6290 H   0  0  0  0  0  0  0  0  0  0  0  0
    0.5970    2.9060   20.4750 C   0  0  0  0  0  0  0  0  0  0  0  0
    0.1780    2.1110   21.1050 H   0  0  0  0  0  0  0  0  0  0  0  0
   -0.2670    3.3860   19.9940 H   0  0  0  0  0  0  0  0  0  0  0  0
    1.4470    2.3140   19.3970 C   0  0  0  0  0  0  0  0  0  0  0  0
    2.3260    1.3400   19.5410 N   0  0  0  0  0  0  0  0  0  0  0  0
    2.9180    1.1030   18.3230 N   0  0  0  0  0  0  0  0  0  0  0  0
    2.4020    1.9470   17.4630 C   0  0  0  0  0  0  0  0  0  0  0  0
    1.4730    2.7240   18.0880 N   0  0  0  0  0  0  0  0  0  0  0  0
    2.6650    2.0290   16.4160 H   0  0  0  0  0  0  0  0  0  0  0  0
    0.7080    3.7790   17.4790 C   0  0  0  0  0  0  0  0  0  0  0  0
    1.1900    4.0670   16.5430 H   0  0  0  0  0  0  0  0  0  0  0  0
    0.6740    4.6410   18.1490 H   0  0  0  0  0  0  0  0  0  0  0  0
   -0.3040    3.4130   17.3030 H   0  0  0  0  0  0  0  0  0  0  0  0
  1  2  1  0  0  0  0
  1 52  1  0  0  0  0
  2 11  1  0  0  0  0
  3  4  1  0  0  0  0
  3  2  2  0  0  0  0
  4  5  1  0  0  0  0
  5  6  2  0  0  0  0
  7  3  1  0  0  0  0
  8  7  2  0  0  0  0
  8  9  1  0  0  0  0
  9  1  2  0  0  0  0
 10  9  1  0  0  0  0
 12  4  1  0  0  0  0
 13 14  1  0  0  0  0
 13  8  1  0  0  0  0
 14 23  1  0  0  0  0
 15 14  1  0  0  0  0
 16 21  1  0  0  0  0
 16 15  2  0  0  0  0
 17 16  1  0  0  0  0
 18 17  2  0  0  0  0
 18 19  1  0  0  0  0
 19 20  2  0  0  0  0
 20 15  1  0  0  0  0
 20 28  1  0  0  0  0
 21 13  1  0  0  0  0
 22 21  2  0  0  0  0
 24 14  1  0  0  0  0
 25 17  1  0  0  0  0
 26 18  1  0  0  0  0
 27 19  1  0  0  0  0
 28 30  1  0  0  0  0
 28 29  1  0  0  0  0
 31 28  1  0  0  0  0
 32  5  1  0  0  0  0
 32 33  1  0  0  0  0
 33 38  1  0  0  0  0
 34 33  2  0  0  0  0
 34 40  1  0  0  0  0
 35 34  1  0  0  0  0
 36 37  1  0  0  0  0
 36 35  2  0  0  0  0
 37 32  2  0  0  0  0
 39 35  1  0  0  0  0
 40 41  1  0  0  0  0
 40 42  1  0  0  0  0
 41 42  1  0  0  0  0
 41 44  1  0  0  0  0
 42 47  1  0  0  0  0
 42 46  1  0  0  0  0
 43 40  1  0  0  0  0
 45 41  1  0  0  0  0
 48 49  1  0  0  0  0
 48 36  1  0  0  0  0
 50 48  1  0  0  0  0
 51 48  1  0  0  0  0
 52 53  1  1  0  0  0
 52 54  1  0  0  0  0
 54 55  1  0  0  0  0
 54 56  1  0  0  0  0
 57 54  1  0  0  0  0
 58 59  1  0  0  0  0
 58 52  1  0  0  0  0
 60 58  1  0  0  0  0
 61 62  2  0  0  0  0
 61 58  1  0  0  0  0
 63 62  1  0  0  0  0
 64 65  1  0  0  0  0
 64 63  2  0  0  0  0
 65 61  1  0  0  0  0
 66 64  1  0  0  0  0
 67 65  1  0  0  0  0
 67 69  1  0  0  0  0
 68 67  1  0  0  0  0
 70 67  1  0  0  0  0
M  END
>  <MODEL>
12

>  <REMARK>
 VINA RESULT:    -4.073      3.258     10.667
 INTER + INTRA:          -5.384
 INTER:                  -6.166
 INTRA:                   0.782
 UNBOUND:                 0.832
  Name = 
  10 active torsions:
  status: ('A' for Active; 'I' for Inactive)
    1  A    between atoms: C_1  and  C_2
    2  A    between atoms: C_2  and  C_3
    3  A    between atoms: C_2  and  C_10
    4  A    between atoms: C_3  and  C_4
    5  A    between atoms: N_8  and  C_9
    6  A    between atoms: C_14  and  C_16
    7  A    between atoms: C_18  and  C_19
    8  A    between atoms: C_23  and  C_24
    9  A    between atoms: C_30  and  N_31
   10  A    between atoms: C_38  and  C_39
                            x       y       z     vdW  Elec       q    Type
                         _______ _______ _______ _____ _____    ______ ____

>  <TORSDO>
F 10

$$$$
=
 OpenBabel07192307433D

 70 75  0  0  1  0  0  0  0  0999 V2000
    2.1610    5.2760   20.3340 C   0  0  0  0  0  0  0  0  0  0  0  0
    1.5980    6.5520   20.4510 C   0  0  0  0  0  0  0  0  0  0  0  0
    2.0800    7.5810   19.6570 C   0  0  0  0  0  0  0  0  0  0  0  0
    1.5670    8.8740   19.6610 N   0  0  0  0  0  0  0  0  0  0  0  0
    0.5010    9.3890   20.3570 C   0  0  0  0  0  0  0  0  0  0  0  0
   -0.2200    8.7960   21.1520 O   0  0  0  0  0  0  0  0  0  0  0  0
    3.0910    7.4110   18.7800 N   0  0  0  0  0  0  0  0  0  0  0  0
    3.6530    6.1790   18.6480 C   0  0  0  0  0  0  0  0  0  0  0  0
    3.2070    5.1020   19.4160 C   0  0  0  0  0  0  0  0  0  0  0  0
    3.7840    3.8950   19.3550 F   0  0  0  0  0  0  0  0  0  0  0  0
    0.8130    6.7380   21.1730 H   0  0  0  0  0  0  0  0  0  0  0  0
    2.0420    9.5080   19.0250 H   0  0  0  0  0  0  0  0  0  0  0  0
    4.7050    6.1000   17.7100 N   0  0  0  0  0  0  0  0  0  0  0  0
    4.6100    5.1310   16.6280 C   0  0  0  0  0  0  0  0  0  0  0  0
    5.8630    5.3710   15.8480 C   0  0  0  0  0  0  0  0  0  0  0  0
    6.6110    6.3660   16.4680 C   0  0  0  0  0  0  0  0  0  0  0  0
    7.8290    6.7910   15.9710 C   0  0  0  0  0  0  0  0  0  0  0  0
    8.2990    6.1840   14.8030 C   0  0  0  0  0  0  0  0  0  0  0  0
    7.5530    5.1750   14.1680 C   0  0  0  0  0  0  0  0  0  0  0  0
    6.3160    4.7480   14.6860 C   0  0  0  0  0  0  0  0  0  0  0  0
    5.8950    6.8130   17.6730 C   0  0  0  0  0  0  0  0  0  0  0  0
    6.3840    7.6230   18.4390 O   0  0  0  0  0  0  0  0  0  0  0  0
    3.7240    5.3450   16.0210 H   0  0  0  0  0  0  0  0  0  0  0  0
    4.5940    4.1140   17.0350 H   0  0  0  0  0  0  0  0  0  0  0  0
    8.3990    7.5610   16.4830 H   0  0  0  0  0  0  0  0  0  0  0  0
    9.2560    6.4890   14.3860 H   0  0  0  0  0  0  0  0  0  0  0  0
    7.9510    4.7150   13.2640 H   0  0  0  0  0  0  0  0  0  0  0  0
    5.5050    3.6620   14.0340 C   0  0  0  0  0  0  0  0  0  0  0  0
    4.3050    4.0770   13.5500 F   0  0  0  0  0  0  0  0  0  0  0  0
    5.2400    2.6390   14.8950 F   0  0  0  0  0  0  0  0  0  0  0  0
    6.1580    3.1050   12.9790 F   0  0  0  0  0  0  0  0  0  0  0  0
    0.2420   10.8320   20.0330 C   0  0  0  0  0  0  0  0  0  0  0  0
   -1.0270   11.3680   20.2020 C   0  0  0  0  0  0  0  0  0  0  0  0
   -1.2690   12.7070   19.8670 C   0  0  0  0  0  0  0  0  0  0  0  0
   -0.1760   13.4330   19.3650 C   0  0  0  0  0  0  0  0  0  0  0  0
    1.0840   12.8390   19.2220 C   0  0  0  0  0  0  0  0  0  0  0  0
    1.3010   11.5350   19.5510 N   0  0  0  0  0  0  0  0  0  0  0  0
   -1.8320   10.7440   20.5840 H   0  0  0  0  0  0  0  0  0  0  0  0
   -0.3090   14.4710   19.0670 H   0  0  0  0  0  0  0  0  0  0  0  0
   -2.6610   13.2830   20.0300 C   0  0  0  0  0  0  0  0  0  0  0  0
   -3.6820   12.7370   20.9970 C   0  0  0  0  0  0  0  0  0  0  0  0
   -3.0000   14.0400   21.2930 C   0  0  0  0  0  0  0  0  0  0  0  0
   -3.0960   13.6810   19.1110 H   0  0  0  0  0  0  0  0  0  0  0  0
   -3.4480   11.8810   21.6150 H   0  0  0  0  0  0  0  0  0  0  0  0
   -4.7240   12.7700   20.6970 H   0  0  0  0  0  0  0  0  0  0  0  0
   -2.2800   14.0660   22.1010 H   0  0  0  0  0  0  0  0  0  0  0  0
   -3.5760   14.9550   21.1930 H   0  0  0  0  0  0  0  0  0  0  0  0
    2.2330   13.6500   18.6320 C   0  0  0  0  0  0  0  0  0  0  0  0
    3.1870   13.9530   19.5580 F   0  0  0  0  0  0  0  0  0  0  0  0
    1.8310   14.8370   18.0990 F   0  0  0  0  0  0  0  0  0  0  0  0
    2.8940   13.0000   17.6280 F   0  0  0  0  0  0  0  0  0  0  0  0
    1.7150    4.0910   21.1770 C   0  0  2  0  0  0  0  0  0  0  0  0
    1.0130    4.5030   21.9180 H   0  0  0  0  0  0  0  0  0  0  0  0
    2.8260    3.4470   22.0190 C   0  0  0  0  0  0  0  0  0  0  0  0
    2.5020    2.5240   22.5100 H   0  0  0  0  0  0  0  0  0  0  0  0
    3.6960    3.2100   21.3980 H   0  0  0  0  0  0  0  0  0  0  0  0
    3.1610    4.1350   22.8020 H   0  0  0  0  0  0  0  0  0  0  0  0
    0.9210    3.0400   20.3680 C   0  0  0  0  0  0  0  0  0  0  0  0
    0.5740    2.2570   21.0530 H   0  0  0  0  0  0  0  0  0  0  0  0
    0.0110    3.4920   19.9520 H   0  0  0  0  0  0  0  0  0  0  0  0
    1.6860    2.4320   19.2350 C   0  0  0  0  0  0  0  0  0  0  0  0
    2.5270    1.4180   19.3160 N   0  0  0  0  0  0  0  0  0  0  0  0
    3.0420    1.1790   18.0630 N   0  0  0  0  0  0  0  0  0  0  0  0
    2.5180    2.0600   17.2460 C   0  0  0  0  0  0  0  0  0  0  0  0
    1.6600    2.8650   17.9340 N   0  0  0  0  0  0  0  0  0  0  0  0
    2.7290    2.1500   16.1890 H   0  0  0  0  0  0  0  0  0  0  0  0
    0.9110    3.9630   17.3850 C   0  0  0  0  0  0  0  0  0  0  0  0
   -0.1540    3.7400   17.4710 H   0  0  0  0  0  0  0  0  0  0  0  0
    1.1700    4.0940   16.3310 H   0  0  0  0  0  0  0  0  0  0  0  0
    1.1690    4.8670   17.9380 H   0  0  0  0  0  0  0  0  0  0  0  0
  1  2  1  0  0  0  0
  1 52  1  0  0  0  0
  2 11  1  0  0  0  0
  3  4  1  0  0  0  0
  3  2  2  0  0  0  0
  4  5  1  0  0  0  0
  5  6  2  0  0  0  0
  7  3  1  0  0  0  0
  8  7  2  0  0  0  0
  8  9  1  0  0  0  0
  9  1  2  0  0  0  0
 10  9  1  0  0  0  0
 12  4  1  0  0  0  0
 13  8  1  0  0  0  0
 14 24  1  0  0  0  0
 14 13  1  0  0  0  0
 15 16  1  0  0  0  0
 15 14  1  0  0  0  0
 16 21  1  0  0  0  0
 17 16  2  0  0  0  0
 17 25  1  0  0  0  0
 18 17  1  0  0  0  0
 19 20  1  0  0  0  0
 19 18  2  0  0  0  0
 20 15  2  0  0  0  0
 21 13  1  0  0  0  0
 21 22  2  0  0  0  0
 23 14  1  0  0  0  0
 26 18  1  0  0  0  0
 27 19  1  0  0  0  0
 28 20  1  0  0  0  0
 28 30  1  0  0  0  0
 29 28  1  0  0  0  0
 31 28  1  0  0  0  0
 32 33  1  0  0  0  0
 32  5  1  0  0  0  0
 33 38  1  0  0  0  0
 34 40  1  0  0  0  0
 34 33  2  0  0  0  0
 35 34  1  0  0  0  0
 36 35  2  0  0  0  0
 36 37  1  0  0  0  0
 37 32  2  0  0  0  0
 39 35  1  0  0  0  0
 40 41  1  0  0  0  0
 40 42  1  0  0  0  0
 41 42  1  0  0  0  0
 41 44  1  0  0  0  0
 42 46  1  0  0  0  0
 43 40  1  0  0  0  0
 45 41  1  0  0  0  0
 47 42  1  0  0  0  0
 48 36  1  0  0  0  0
 48 49  1  0  0  0  0
 50 48  1  0  0  0  0
 51 48  1  0  0  0  0
 52 53  1  1  0  0  0
 52 54  1  0  0  0  0
 54 55  1  0  0  0  0
 54 57  1  0  0  0  0
 56 54  1  0  0  0  0
 58 59  1  0  0  0  0
 58 52  1  0  0  0  0
 60 58  1  0  0  0  0
 61 62  2  0  0  0  0
 61 58  1  0  0  0  0
 63 62  1  0  0  0  0
 64 65  1  0  0  0  0
 64 63  2  0  0  0  0
 65 61  1  0  0  0  0
 66 64  1  0  0  0  0
 67 68  1  0  0  0  0
 67 65  1  0  0  0  0
 67 70  1  0  0  0  0
 69 67  1  0  0  0  0
M  END
>  <MODEL>
13

>  <REMARK>
 VINA RESULT:    -4.058      2.993     10.992
 INTER + INTRA:          -5.362
 INTER:                  -5.729
 INTRA:                   0.367
 UNBOUND:                 0.832
  Name = 
  10 active torsions:
  status: ('A' for Active; 'I' for Inactive)
    1  A    between atoms: C_1  and  C_2
    2  A    between atoms: C_2  and  C_3
    3  A    between atoms: C_2  and  C_10
    4  A    between atoms: C_3  and  C_4
    5  A    between atoms: N_8  and  C_9
    6  A    between atoms: C_14  and  C_16
    7  A    between atoms: C_18  and  C_19
    8  A    between atoms: C_23  and  C_24
    9  A    between atoms: C_30  and  N_31
   10  A    between atoms: C_38  and  C_39
                            x       y       z     vdW  Elec       q    Type
                         _______ _______ _______ _____ _____    ______ ____

>  <TORSDO>
F 10

$$$$
=
 OpenBabel07192307433D

 70 75  0  0  1  0  0  0  0  0999 V2000
    0.6590   13.3310   20.1040 C   0  0  0  0  0  0  0  0  0  0  0  0
    0.7640   12.0470   19.5570 C   0  0  0  0  0  0  0  0  0  0  0  0
    1.9640   11.3620   19.6620 C   0  0  0  0  0  0  0  0  0  0  0  0
    2.1670   10.0690   19.1920 N   0  0  0  0  0  0  0  0  0  0  0  0
    1.2760    9.2020   18.6090 C   0  0  0  0  0  0  0  0  0  0  0  0
    0.0930    9.4100   18.3610 O   0  0  0  0  0  0  0  0  0  0  0  0
    3.0540   11.8900   20.2580 N   0  0  0  0  0  0  0  0  0  0  0  0
    2.9740   13.1360   20.7980 C   0  0  0  0  0  0  0  0  0  0  0  0
    1.7910   13.8730   20.7300 C   0  0  0  0  0  0  0  0  0  0  0  0
    1.7030   15.1260   21.1940 F   0  0  0  0  0  0  0  0  0  0  0  0
   -0.0750   11.6060   19.0340 H   0  0  0  0  0  0  0  0  0  0  0  0
    3.1080    9.7180   19.3410 H   0  0  0  0  0  0  0  0  0  0  0  0
    4.1640   13.6040   21.3960 N   0  0  0  0  0  0  0  0  0  0  0  0
    4.4450   13.2450   22.7780 C   0  0  0  0  0  0  0  0  0  0  0  0
    5.7740   13.8820   23.0310 C   0  0  0  0  0  0  0  0  0  0  0  0
    6.1810   14.5700   21.8930 C   0  0  0  0  0  0  0  0  0  0  0  0
    7.3730   15.2670   21.8400 C   0  0  0  0  0  0  0  0  0  0  0  0
    8.1790   15.2590   22.9820 C   0  0  0  0  0  0  0  0  0  0  0  0
    7.7780   14.5680   24.1400 C   0  0  0  0  0  0  0  0  0  0  0  0
    6.5590   13.8670   24.1830 C   0  0  0  0  0  0  0  0  0  0  0  0
    5.1450   14.4250   20.8570 C   0  0  0  0  0  0  0  0  0  0  0  0
    5.2270   15.0070   19.7920 O   0  0  0  0  0  0  0  0  0  0  0  0
    4.5090   12.1550   22.8680 H   0  0  0  0  0  0  0  0  0  0  0  0
    3.6800   13.6670   23.4390 H   0  0  0  0  0  0  0  0  0  0  0  0
    7.6610   15.8080   20.9430 H   0  0  0  0  0  0  0  0  0  0  0  0
    9.1230   15.8010   22.9790 H   0  0  0  0  0  0  0  0  0  0  0  0
    8.4240   14.5900   25.0170 H   0  0  0  0  0  0  0  0  0  0  0  0
    6.1000   13.1310   25.4120 C   0  0  0  0  0  0  0  0  0  0  0  0
    4.9100   13.5600   25.9070 F   0  0  0  0  0  0  0  0  0  0  0  0
    7.0000   13.2340   26.4320 F   0  0  0  0  0  0  0  0  0  0  0  0
    5.9470   11.8000   25.1800 F   0  0  0  0  0  0  0  0  0  0  0  0
    1.8890    7.8670   18.2950 C   0  0  0  0  0  0  0  0  0  0  0  0
    1.2910    6.7000   18.7500 C   0  0  0  0  0  0  0  0  0  0  0  0
    1.8870    5.4610   18.4800 C   0  0  0  0  0  0  0  0  0  0  0  0
    3.0850    5.4890   17.7470 C   0  0  0  0  0  0  0  0  0  0  0  0
    3.6380    6.6990   17.3090 C   0  0  0  0  0  0  0  0  0  0  0  0
    3.0470    7.8950   17.5820 N   0  0  0  0  0  0  0  0  0  0  0  0
    0.3700    6.7520   19.3240 H   0  0  0  0  0  0  0  0  0  0  0  0
    3.6050    4.5590   17.5260 H   0  0  0  0  0  0  0  0  0  0  0  0
    1.2460    4.1890   18.9990 C   0  0  0  0  0  0  0  0  0  0  0  0
    1.9930    2.8910   19.1770 C   0  0  0  0  0  0  0  0  0  0  0  0
    1.6070    3.6960   20.3820 C   0  0  0  0  0  0  0  0  0  0  0  0
    0.2020    4.0590   18.7100 H   0  0  0  0  0  0  0  0  0  0  0  0
    3.0410    2.8220   18.9180 H   0  0  0  0  0  0  0  0  0  0  0  0
    1.4500    1.9710   18.9900 H   0  0  0  0  0  0  0  0  0  0  0  0
    2.3920    4.1980   20.9330 H   0  0  0  0  0  0  0  0  0  0  0  0
    0.8020    3.3260   21.0100 H   0  0  0  0  0  0  0  0  0  0  0  0
    4.9620    6.6890   16.5540 C   0  0  0  0  0  0  0  0  0  0  0  0
    4.8600    7.2420   15.3120 F   0  0  0  0  0  0  0  0  0  0  0  0
    5.4640    5.4350   16.3690 F   0  0  0  0  0  0  0  0  0  0  0  0
    5.9510    7.3910   17.1850 F   0  0  0  0  0  0  0  0  0  0  0  0
   -0.6090   14.1680   20.0190 C   0  0  2  0  0  0  0  0  0  0  0  0
   -1.3980   13.4780   19.6860 H   0  0  0  0  0  0  0  0  0  0  0  0
   -0.5820   15.2670   18.9470 C   0  0  0  0  0  0  0  0  0  0  0  0
   -0.7740   14.8800   17.9410 H   0  0  0  0  0  0  0  0  0  0  0  0
   -1.3330   16.0350   19.1590 H   0  0  0  0  0  0  0  0  0  0  0  0
    0.3950   15.7610   18.9280 H   0  0  0  0  0  0  0  0  0  0  0  0
   -1.0640   14.7140   21.3920 C   0  0  0  0  0  0  0  0  0  0  0  0
   -0.1770   15.0090   21.9660 H   0  0  0  0  0  0  0  0  0  0  0  0
   -1.6470   15.6360   21.2580 H   0  0  0  0  0  0  0  0  0  0  0  0
   -1.8980   13.7600   22.1860 C   0  0  0  0  0  0  0  0  0  0  0  0
   -1.4540   12.8610   23.0440 N   0  0  0  0  0  0  0  0  0  0  0  0
   -2.5300   12.1660   23.5440 N   0  0  0  0  0  0  0  0  0  0  0  0
   -3.6080   12.6420   22.9700 C   0  0  0  0  0  0  0  0  0  0  0  0
   -3.2630   13.6440   22.1130 N   0  0  0  0  0  0  0  0  0  0  0  0
   -4.6210   12.2990   23.1360 H   0  0  0  0  0  0  0  0  0  0  0  0
   -4.1680   14.3950   21.2860 C   0  0  0  0  0  0  0  0  0  0  0  0
   -3.6320   14.7390   20.4000 H   0  0  0  0  0  0  0  0  0  0  0  0
   -4.5420   15.2600   21.8410 H   0  0  0  0  0  0  0  0  0  0  0  0
   -5.0040   13.7490   21.0130 H   0  0  0  0  0  0  0  0  0  0  0  0
  1  9  1  0  0  0  0
  2  3  1  0  0  0  0
  2  1  2  0  0  0  0
  3  7  2  0  0  0  0
  4 12  1  0  0  0  0
  4  3  1  0  0  0  0
  5  4  1  0  0  0  0
  6  5  2  0  0  0  0
  7  8  1  0  0  0  0
  8 13  1  0  0  0  0
  9  8  2  0  0  0  0
  9 10  1  0  0  0  0
 11  2  1  0  0  0  0
 13 14  1  0  0  0  0
 14 23  1  0  0  0  0
 14 15  1  0  0  0  0
 14 24  1  0  0  0  0
 15 20  1  0  0  0  0
 16 15  2  0  0  0  0
 17 16  1  0  0  0  0
 17 18  2  0  0  0  0
 18 19  1  0  0  0  0
 19 20  2  0  0  0  0
 19 27  1  0  0  0  0
 20 28  1  0  0  0  0
 21 13  1  0  0  0  0
 21 16  1  0  0  0  0
 22 21  2  0  0  0  0
 25 17  1  0  0  0  0
 26 18  1  0  0  0  0
 28 29  1  0  0  0  0
 28 30  1  0  0  0  0
 31 28  1  0  0  0  0
 32  5  1  0  0  0  0
 32 33  1  0  0  0  0
 33 38  1  0  0  0  0
 34 33  2  0  0  0  0
 34 40  1  0  0  0  0
 35 34  1  0  0  0  0
 36 37  1  0  0  0  0
 36 35  2  0  0  0  0
 37 32  2  0  0  0  0
 39 35  1  0  0  0  0
 40 41  1  0  0  0  0
 40 42  1  0  0  0  0
 41 42  1  0  0  0  0
 42 46  1  0  0  0  0
 42 47  1  0  0  0  0
 43 40  1  0  0  0  0
 44 41  1  0  0  0  0
 45 41  1  0  0  0  0
 48 51  1  0  0  0  0
 48 36  1  0  0  0  0
 49 48  1  0  0  0  0
 50 48  1  0  0  0  0
 52 53  1  6  0  0  0
 52  1  1  0  0  0  0
 52 58  1  0  0  0  0
 54 56  1  0  0  0  0
 54 52  1  0  0  0  0
 55 54  1  0  0  0  0
 57 54  1  0  0  0  0
 58 59  1  0  0  0  0
 58 61  1  0  0  0  0
 60 58  1  0  0  0  0
 61 62  2  0  0  0  0
 62 63  1  0  0  0  0
 64 66  1  0  0  0  0
 64 63  2  0  0  0  0
 65 61  1  0  0  0  0
 65 64  1  0  0  0  0
 67 69  1  0  0  0  0
 67 65  1  0  0  0  0
 68 67  1  0  0  0  0
 70 67  1  0  0  0  0
M  END
>  <MODEL>
14

>  <REMARK>
 VINA RESULT:    -3.854      3.187      6.387
 INTER + INTRA:          -5.050
 INTER:                  -3.559
 INTRA:                  -1.491
 UNBOUND:                 0.832
  Name = 
  10 active torsions:
  status: ('A' for Active; 'I' for Inactive)
    1  A    between atoms: C_1  and  C_2
    2  A    between atoms: C_2  and  C_3
    3  A    between atoms: C_2  and  C_10
    4  A    between atoms: C_3  and  C_4
    5  A    between atoms: N_8  and  C_9
    6  A    between atoms: C_14  and  C_16
    7  A    between atoms: C_18  and  C_19
    8  A    between atoms: C_23  and  C_24
    9  A    between atoms: C_30  and  N_31
   10  A    between atoms: C_38  and  C_39
                            x       y       z     vdW  Elec       q    Type
                         _______ _______ _______ _____ _____    ______ ____

>  <TORSDO>
F 10

$$$$
=
 OpenBabel07192307433D

 70 75  0  0  1  0  0  0  0  0999 V2000
    3.0070   12.8630   17.9990 C   0  0  0  0  0  0  0  0  0  0  0  0
    3.4200   11.5280   17.9160 C   0  0  0  0  0  0  0  0  0  0  0  0
    2.5070   10.5190   18.1770 C   0  0  0  0  0  0  0  0  0  0  0  0
    2.7980    9.1620   18.0830 N   0  0  0  0  0  0  0  0  0  0  0  0
    3.9560    8.5420   17.6830 C   0  0  0  0  0  0  0  0  0  0  0  0
    5.0020    9.0800   17.3360 O   0  0  0  0  0  0  0  0  0  0  0  0
    1.2280   10.7670   18.5290 N   0  0  0  0  0  0  0  0  0  0  0  0
    0.8040   12.0570   18.6140 C   0  0  0  0  0  0  0  0  0  0  0  0
    1.6750   13.1170   18.3570 C   0  0  0  0  0  0  0  0  0  0  0  0
    1.3030   14.3950   18.4980 F   0  0  0  0  0  0  0  0  0  0  0  0
    4.4490   11.2890   17.6780 H   0  0  0  0  0  0  0  0  0  0  0  0
    2.0180    8.5550   18.3170 H   0  0  0  0  0  0  0  0  0  0  0  0
   -0.5470   12.2170   18.9920 N   0  0  0  0  0  0  0  0  0  0  0  0
   -1.5640   11.4250   18.3170 C   0  0  0  0  0  0  0  0  0  0  0  0
   -2.8270   11.8400   19.0010 C   0  0  0  0  0  0  0  0  0  0  0  0
   -2.5390   12.8120   19.9540 C   0  0  0  0  0  0  0  0  0  0  0  0
   -3.5200   13.3900   20.7370 C   0  0  0  0  0  0  0  0  0  0  0  0
   -4.8370   12.9620   20.5460 C   0  0  0  0  0  0  0  0  0  0  0  0
   -5.1410   11.9810   19.5850 C   0  0  0  0  0  0  0  0  0  0  0  0
   -4.1340   11.4030   18.7910 C   0  0  0  0  0  0  0  0  0  0  0  0
   -1.0920   13.0810   19.9310 C   0  0  0  0  0  0  0  0  0  0  0  0
   -0.5980   13.9570   20.6170 O   0  0  0  0  0  0  0  0  0  0  0  0
   -1.3640   10.3590   18.4760 H   0  0  0  0  0  0  0  0  0  0  0  0
   -1.5960   11.6820   17.2520 H   0  0  0  0  0  0  0  0  0  0  0  0
   -3.2700   14.1570   21.4640 H   0  0  0  0  0  0  0  0  0  0  0  0
   -5.6360   13.3990   21.1410 H   0  0  0  0  0  0  0  0  0  0  0  0
   -6.1790   11.6760   19.4540 H   0  0  0  0  0  0  0  0  0  0  0  0
   -4.4340   10.3620   17.7470 C   0  0  0  0  0  0  0  0  0  0  0  0
   -5.1460   10.8250   16.6870 F   0  0  0  0  0  0  0  0  0  0  0  0
   -5.1450    9.3180   18.2610 F   0  0  0  0  0  0  0  0  0  0  0  0
   -3.2990    9.8240   17.2260 F   0  0  0  0  0  0  0  0  0  0  0  0
    3.8370    7.0460   17.6720 C   0  0  0  0  0  0  0  0  0  0  0  0
    4.6440    6.2870   16.8340 C   0  0  0  0  0  0  0  0  0  0  0  0
    4.5040    4.8930   16.8060 C   0  0  0  0  0  0  0  0  0  0  0  0
    3.5260    4.3460   17.6520 C   0  0  0  0  0  0  0  0  0  0  0  0
    2.7450    5.1620   18.4810 C   0  0  0  0  0  0  0  0  0  0  0  0
    2.8930    6.5150   18.4940 N   0  0  0  0  0  0  0  0  0  0  0  0
    5.3730    6.7790   16.1950 H   0  0  0  0  0  0  0  0  0  0  0  0
    3.3560    3.2710   17.6570 H   0  0  0  0  0  0  0  0  0  0  0  0
    5.3690    4.0700   15.8720 C   0  0  0  0  0  0  0  0  0  0  0  0
    5.3240    4.1920   14.3700 C   0  0  0  0  0  0  0  0  0  0  0  0
    6.4950    4.7460   15.1260 C   0  0  0  0  0  0  0  0  0  0  0  0
    5.5780    3.0590   16.2250 H   0  0  0  0  0  0  0  0  0  0  0  0
    4.6410    4.8850   13.8960 H   0  0  0  0  0  0  0  0  0  0  0  0
    5.4800    3.2890   13.7890 H   0  0  0  0  0  0  0  0  0  0  0  0
    6.5970    5.8220   15.1880 H   0  0  0  0  0  0  0  0  0  0  0  0
    7.4430    4.2210   15.0600 H   0  0  0  0  0  0  0  0  0  0  0  0
    1.6650    4.5310   19.3520 C   0  0  0  0  0  0  0  0  0  0  0  0
    2.1820    3.7290   20.3270 F   0  0  0  0  0  0  0  0  0  0  0  0
    0.7940    3.7560   18.6470 F   0  0  0  0  0  0  0  0  0  0  0  0
    0.8930    5.4500   20.0070 F   0  0  0  0  0  0  0  0  0  0  0  0
    3.9410   14.0380   17.7530 C   0  0  2  0  0  0  0  0  0  0  0  0
    3.6290   14.4680   16.7890 H   0  0  0  0  0  0  0  0  0  0  0  0
    5.4140   13.6560   17.5440 C   0  0  0  0  0  0  0  0  0  0  0  0
    6.1030   14.3450   18.0410 H   0  0  0  0  0  0  0  0  0  0  0  0
    5.6110   12.6490   17.9260 H   0  0  0  0  0  0  0  0  0  0  0  0
    5.6610   13.6550   16.4770 H   0  0  0  0  0  0  0  0  0  0  0  0
    3.7810   15.1650   18.8000 C   0  0  0  0  0  0  0  0  0  0  0  0
    4.4140   16.0110   18.5060 H   0  0  0  0  0  0  0  0  0  0  0  0
    2.7510   15.5490   18.7860 H   0  0  0  0  0  0  0  0  0  0  0  0
    4.0940   14.7490   20.2020 C   0  0  0  0  0  0  0  0  0  0  0  0
    3.2280   14.3260   21.1030 N   0  0  0  0  0  0  0  0  0  0  0  0
    3.9060   14.0700   22.2720 N   0  0  0  0  0  0  0  0  0  0  0  0
    5.1680   14.3560   22.0670 C   0  0  0  0  0  0  0  0  0  0  0  0
    5.3360   14.7830   20.7840 N   0  0  0  0  0  0  0  0  0  0  0  0
    5.9640   14.2760   22.7950 H   0  0  0  0  0  0  0  0  0  0  0  0
    6.5760   15.2080   20.1920 C   0  0  0  0  0  0  0  0  0  0  0  0
    6.4750   15.1780   19.1050 H   0  0  0  0  0  0  0  0  0  0  0  0
    7.3800   14.5350   20.4990 H   0  0  0  0  0  0  0  0  0  0  0  0
    6.7950   16.2200   20.5380 H   0  0  0  0  0  0  0  0  0  0  0  0
  1  9  1  0  0  0  0
  2  1  2  0  0  0  0
  2  3  1  0  0  0  0
  3  7  2  0  0  0  0
  4  3  1  0  0  0  0
  4 12  1  0  0  0  0
  5  4  1  0  0  0  0
  6  5  2  0  0  0  0
  7  8  1  0  0  0  0
  8 13  1  0  0  0  0
  9 10  1  0  0  0  0
  9  8  2  0  0  0  0
 11  2  1  0  0  0  0
 13 21  1  0  0  0  0
 14 23  1  0  0  0  0
 14 13  1  0  0  0  0
 14 15  1  0  0  0  0
 15 16  1  0  0  0  0
 16 17  2  0  0  0  0
 17 25  1  0  0  0  0
 18 17  1  0  0  0  0
 18 26  1  0  0  0  0
 19 18  2  0  0  0  0
 20 15  2  0  0  0  0
 20 19  1  0  0  0  0
 21 16  1  0  0  0  0
 21 22  2  0  0  0  0
 24 14  1  0  0  0  0
 27 19  1  0  0  0  0
 28 30  1  0  0  0  0
 28 20  1  0  0  0  0
 29 28  1  0  0  0  0
 31 28  1  0  0  0  0
 32  5  1  0  0  0  0
 32 37  1  0  0  0  0
 33 32  2  0  0  0  0
 34 33  1  0  0  0  0
 34 35  2  0  0  0  0
 35 39  1  0  0  0  0
 35 36  1  0  0  0  0
 36 37  2  0  0  0  0
 36 48  1  0  0  0  0
 38 33  1  0  0  0  0
 40 43  1  0  0  0  0
 40 34  1  0  0  0  0
 41 42  1  0  0  0  0
 41 40  1  0  0  0  0
 42 46  1  0  0  0  0
 42 40  1  0  0  0  0
 44 41  1  0  0  0  0
 45 41  1  0  0  0  0
 47 42  1  0  0  0  0
 48 51  1  0  0  0  0
 48 49  1  0  0  0  0
 50 48  1  0  0  0  0
 52 53  1  6  0  0  0
 52  1  1  0  0  0  0
 52 58  1  0  0  0  0
 54 52  1  0  0  0  0
 54 56  1  0  0  0  0
 54 55  1  0  0  0  0
 57 54  1  0  0  0  0
 58 61  1  0  0  0  0
 59 58  1  0  0  0  0
 60 58  1  0  0  0  0
 61 65  1  0  0  0  0
 61 62  2  0  0  0  0
 62 63  1  0  0  0  0
 64 63  2  0  0  0  0
 64 66  1  0  0  0  0
 65 64  1  0  0  0  0
 67 69  1  0  0  0  0
 67 70  1  0  0  0  0
 67 65  1  0  0  0  0
 68 67  1  0  0  0  0
M  END
>  <MODEL>
15

>  <REMARK>
 VINA RESULT:    -3.842      2.505      3.622
 INTER + INTRA:          -5.031
 INTER:                  -5.296
 INTRA:                   0.265
 UNBOUND:                 0.832
  Name = 
  10 active torsions:
  status: ('A' for Active; 'I' for Inactive)
    1  A    between atoms: C_1  and  C_2
    2  A    between atoms: C_2  and  C_3
    3  A    between atoms: C_2  and  C_10
    4  A    between atoms: C_3  and  C_4
    5  A    between atoms: N_8  and  C_9
    6  A    between atoms: C_14  and  C_16
    7  A    between atoms: C_18  and  C_19
    8  A    between atoms: C_23  and  C_24
    9  A    between atoms: C_30  and  N_31
   10  A    between atoms: C_38  and  C_39
                            x       y       z     vdW  Elec       q    Type
                         _______ _______ _______ _____ _____    ______ ____

>  <TORSDO>
F 10

$$$$
=
 OpenBabel07192307433D

 70 75  0  0  1  0  0  0  0  0999 V2000
    1.8600    4.9040   20.7450 C   0  0  0  0  0  0  0  0  0  0  0  0
    1.3250    6.1590   21.0560 C   0  0  0  0  0  0  0  0  0  0  0  0
    1.8240    7.2850   20.4200 C   0  0  0  0  0  0  0  0  0  0  0  0
    1.3390    8.5730   20.6230 N   0  0  0  0  0  0  0  0  0  0  0  0
    0.2890    9.0000   21.3980 C   0  0  0  0  0  0  0  0  0  0  0  0
   -0.4390    8.3100   22.1030 O   0  0  0  0  0  0  0  0  0  0  0  0
    2.8240    7.2280   19.5170 N   0  0  0  0  0  0  0  0  0  0  0  0
    3.3580    6.0180   19.1970 C   0  0  0  0  0  0  0  0  0  0  0  0
    2.8950    4.8470   19.8000 C   0  0  0  0  0  0  0  0  0  0  0  0
    3.4450    3.6520   19.5540 F   0  0  0  0  0  0  0  0  0  0  0  0
    0.5500    6.2510   21.8060 H   0  0  0  0  0  0  0  0  0  0  0  0
    1.8220    9.2860   20.0840 H   0  0  0  0  0  0  0  0  0  0  0  0
    4.4020    6.0580   18.2470 N   0  0  0  0  0  0  0  0  0  0  0  0
    5.4640    7.0380   18.4120 C   0  0  0  0  0  0  0  0  0  0  0  0
    6.3730    6.7510   17.2600 C   0  0  0  0  0  0  0  0  0  0  0  0
    5.8380    5.7190   16.4950 C   0  0  0  0  0  0  0  0  0  0  0  0
    6.4620    5.2460   15.3560 C   0  0  0  0  0  0  0  0  0  0  0  0
    7.6710    5.8420   14.9850 C   0  0  0  0  0  0  0  0  0  0  0  0
    8.2210    6.8860   15.7490 C   0  0  0  0  0  0  0  0  0  0  0  0
    7.5750    7.3620   16.9040 C   0  0  0  0  0  0  0  0  0  0  0  0
    4.5660    5.2940   17.1000 C   0  0  0  0  0  0  0  0  0  0  0  0
    3.8580    4.4580   16.5690 O   0  0  0  0  0  0  0  0  0  0  0  0
    5.9750    6.8680   19.3660 H   0  0  0  0  0  0  0  0  0  0  0  0
    5.0560    8.0520   18.3410 H   0  0  0  0  0  0  0  0  0  0  0  0
    6.0160    4.4480   14.7690 H   0  0  0  0  0  0  0  0  0  0  0  0
    8.1880    5.4980   14.0910 H   0  0  0  0  0  0  0  0  0  0  0  0
    9.1600    7.3360   15.4280 H   0  0  0  0  0  0  0  0  0  0  0  0
    8.1340    8.4880   17.7310 C   0  0  0  0  0  0  0  0  0  0  0  0
    7.2160    9.4190   18.0990 F   0  0  0  0  0  0  0  0  0  0  0  0
    9.1220    9.1600   17.0730 F   0  0  0  0  0  0  0  0  0  0  0  0
    8.6920    8.0390   18.8870 F   0  0  0  0  0  0  0  0  0  0  0  0
    0.0590   10.4800   21.2960 C   0  0  0  0  0  0  0  0  0  0  0  0
    0.9080   11.2680   20.5310 C   0  0  0  0  0  0  0  0  0  0  0  0
    0.7050   12.6530   20.4670 C   0  0  0  0  0  0  0  0  0  0  0  0
   -0.3760   13.1610   21.2050 C   0  0  0  0  0  0  0  0  0  0  0  0
   -1.2030   12.3150   21.9550 C   0  0  0  0  0  0  0  0  0  0  0  0
   -0.9900   10.9710   22.0080 N   0  0  0  0  0  0  0  0  0  0  0  0
    1.7340   10.8090   19.9940 H   0  0  0  0  0  0  0  0  0  0  0  0
   -0.5700   14.2320   21.2120 H   0  0  0  0  0  0  0  0  0  0  0  0
    1.6490   13.5140   19.6510 C   0  0  0  0  0  0  0  0  0  0  0  0
    2.4840   12.9870   18.5110 C   0  0  0  0  0  0  0  0  0  0  0  0
    1.2890   13.8460   18.2210 C   0  0  0  0  0  0  0  0  0  0  0  0
    2.1300   14.3150   20.2140 H   0  0  0  0  0  0  0  0  0  0  0  0
    2.4430   11.9400   18.2400 H   0  0  0  0  0  0  0  0  0  0  0  0
    3.4660   13.4230   18.3660 H   0  0  0  0  0  0  0  0  0  0  0  0
    0.4220   13.3790   17.7730 H   0  0  0  0  0  0  0  0  0  0  0  0
    1.4600   14.8640   17.8820 H   0  0  0  0  0  0  0  0  0  0  0  0
   -2.3390   12.9130   22.7770 C   0  0  0  0  0  0  0  0  0  0  0  0
   -3.2800   13.5250   22.0020 F   0  0  0  0  0  0  0  0  0  0  0  0
   -1.9170   13.8510   23.6710 F   0  0  0  0  0  0  0  0  0  0  0  0
   -3.0220   11.9840   23.5130 F   0  0  0  0  0  0  0  0  0  0  0  0
    1.3940    3.6160   21.4060 C   0  0  2  0  0  0  0  0  0  0  0  0
    0.6530    3.9210   22.1600 H   0  0  0  0  0  0  0  0  0  0  0  0
    2.4750    2.8770   22.2080 C   0  0  0  0  0  0  0  0  0  0  0  0
    2.5090    3.1870   23.2560 H   0  0  0  0  0  0  0  0  0  0  0  0
    2.3070    1.7950   22.1820 H   0  0  0  0  0  0  0  0  0  0  0  0
    3.4650    3.0640   21.7770 H   0  0  0  0  0  0  0  0  0  0  0  0
    0.6530    2.6710   20.4320 C   0  0  0  0  0  0  0  0  0  0  0  0
    0.2490    1.8250   21.0000 H   0  0  0  0  0  0  0  0  0  0  0  0
   -0.2210    3.1810   20.0030 H   0  0  0  0  0  0  0  0  0  0  0  0
    1.4930    2.1760   19.2980 C   0  0  0  0  0  0  0  0  0  0  0  0
    2.3860    1.2070   19.3530 N   0  0  0  0  0  0  0  0  0  0  0  0
    2.9610    1.0730   18.1110 N   0  0  0  0  0  0  0  0  0  0  0  0
    2.4190    1.9730   17.3260 C   0  0  0  0  0  0  0  0  0  0  0  0
    1.4920    2.6870   18.0240 N   0  0  0  0  0  0  0  0  0  0  0  0
    2.6650    2.1390   16.2860 H   0  0  0  0  0  0  0  0  0  0  0  0
    0.7030    3.7740   17.5110 C   0  0  0  0  0  0  0  0  0  0  0  0
   -0.2710    3.3890   17.2060 H   0  0  0  0  0  0  0  0  0  0  0  0
    1.2050    4.2160   16.6460 H   0  0  0  0  0  0  0  0  0  0  0  0
    0.6000    4.5260   18.2950 H   0  0  0  0  0  0  0  0  0  0  0  0
  1  2  1  0  0  0  0
  1 52  1  0  0  0  0
  2 11  1  0  0  0  0
  3  4  1  0  0  0  0
  3  2  2  0  0  0  0
  4  5  1  0  0  0  0
  5  6  2  0  0  0  0
  7  3  1  0  0  0  0
  8  7  2  0  0  0  0
  8  9  1  0  0  0  0
  9  1  2  0  0  0  0
 10  9  1  0  0  0  0
 12  4  1  0  0  0  0
 13 14  1  0  0  0  0
 13  8  1  0  0  0  0
 14 23  1  0  0  0  0
 15 14  1  0  0  0  0
 16 21  1  0  0  0  0
 16 15  2  0  0  0  0
 17 16  1  0  0  0  0
 18 17  2  0  0  0  0
 18 19  1  0  0  0  0
 19 20  2  0  0  0  0
 20 15  1  0  0  0  0
 20 28  1  0  0  0  0
 21 13  1  0  0  0  0
 22 21  2  0  0  0  0
 24 14  1  0  0  0  0
 25 17  1  0  0  0  0
 26 18  1  0  0  0  0
 27 19  1  0  0  0  0
 28 29  1  0  0  0  0
 28 31  1  0  0  0  0
 30 28  1  0  0  0  0
 32  5  1  0  0  0  0
 32 37  1  0  0  0  0
 33 32  2  0  0  0  0
 34 33  1  0  0  0  0
 34 35  2  0  0  0  0
 35 39  1  0  0  0  0
 35 36  1  0  0  0  0
 36 37  2  0  0  0  0
 36 48  1  0  0  0  0
 38 33  1  0  0  0  0
 40 43  1  0  0  0  0
 40 34  1  0  0  0  0
 41 40  1  0  0  0  0
 42 41  1  0  0  0  0
 42 40  1  0  0  0  0
 44 41  1  0  0  0  0
 45 41  1  0  0  0  0
 46 42  1  0  0  0  0
 47 42  1  0  0  0  0
 48 51  1  0  0  0  0
 48 50  1  0  0  0  0
 49 48  1  0  0  0  0
 52 53  1  1  0  0  0
 52 54  1  0  0  0  0
 54 55  1  0  0  0  0
 56 54  1  0  0  0  0
 57 54  1  0  0  0  0
 58 59  1  0  0  0  0
 58 52  1  0  0  0  0
 60 58  1  0  0  0  0
 61 62  2  0  0  0  0
 61 58  1  0  0  0  0
 63 62  1  0  0  0  0
 64 65  1  0  0  0  0
 64 63  2  0  0  0  0
 65 61  1  0  0  0  0
 66 64  1  0  0  0  0
 67 65  1  0  0  0  0
 67 70  1  0  0  0  0
 68 67  1  0  0  0  0
 69 67  1  0  0  0  0
M  END
>  <MODEL>
16

>  <REMARK>
 VINA RESULT:    -3.797      3.169     10.989
 INTER + INTRA:          -4.962
 INTER:                  -6.209
 INTRA:                   1.247
 UNBOUND:                 0.832
  Name = 
  10 active torsions:
  status: ('A' for Active; 'I' for Inactive)
    1  A    between atoms: C_1  and  C_2
    2  A    between atoms: C_2  and  C_3
    3  A    between atoms: C_2  and  C_10
    4  A    between atoms: C_3  and  C_4
    5  A    between atoms: N_8  and  C_9
    6  A    between atoms: C_14  and  C_16
    7  A    between atoms: C_18  and  C_19
    8  A    between atoms: C_23  and  C_24
    9  A    between atoms: C_30  and  N_31
   10  A    between atoms: C_38  and  C_39
                            x       y       z     vdW  Elec       q    Type
                         _______ _______ _______ _____ _____    ______ ____

>  <TORSDO>
F 10

$$$$
