=
 OpenBabel07192307433D

 40 42  0  0  0  0  0  0  0  0999 V2000
    2.9690    6.5980   18.3060 C   0  0  0  0  0  0  0  0  0  0  0  0
    4.4290    7.0590   18.1410 C   0  0  0  0  0  0  0  0  0  0  0  0
    5.4020    5.8860   18.0770 C   0  0  0  0  0  0  0  0  0  0  0  0
    4.8940    4.8670   17.1620 N   0  0  0  0  0  0  0  0  0  0  0  0
    3.5650    4.3090   17.4600 C   0  0  0  0  0  0  0  0  0  0  0  0
    2.8610    5.0920   18.5670 C   0  0  0  0  0  0  0  0  0  0  0  0
    2.4400    6.8180   17.3680 H   0  0  0  0  0  0  0  0  0  0  0  0
    4.5050    7.6470   17.2170 H   0  0  0  0  0  0  0  0  0  0  0  0
    4.7370    7.7290   18.9520 H   0  0  0  0  0  0  0  0  0  0  0  0
    5.5030    5.4390   19.0740 H   0  0  0  0  0  0  0  0  0  0  0  0
    6.4100    6.2320   17.8280 H   0  0  0  0  0  0  0  0  0  0  0  0
    2.9300    4.3450   16.5650 H   0  0  0  0  0  0  0  0  0  0  0  0
    3.6610    3.2600   17.7640 H   0  0  0  0  0  0  0  0  0  0  0  0
    3.2990    4.8470   19.5430 H   0  0  0  0  0  0  0  0  0  0  0  0
    1.8120    4.7770   18.6210 H   0  0  0  0  0  0  0  0  0  0  0  0
    5.4470    4.6440   15.9060 C   0  0  0  0  0  0  0  0  0  0  0  0
    6.7670    5.0370   15.6170 C   0  0  0  0  0  0  0  0  0  0  0  0
    7.3480    4.8310   14.3580 C   0  0  0  0  0  0  0  0  0  0  0  0
    6.6100    4.2220   13.3520 C   0  0  0  0  0  0  0  0  0  0  0  0
    7.3130    3.9650   11.8050 Cl  0  0  0  0  0  0  0  0  0  0  0  0
    5.3040    3.8210   13.5980 C   0  0  0  0  0  0  0  0  0  0  0  0
    4.7340    4.0340   14.8600 C   0  0  0  0  0  0  0  0  0  0  0  0
    7.3690    5.5380   16.3700 H   0  0  0  0  0  0  0  0  0  0  0  0
    8.3680    5.1550   14.1770 H   0  0  0  0  0  0  0  0  0  0  0  0
    4.7200    3.3380   12.8200 H   0  0  0  0  0  0  0  0  0  0  0  0
    3.7200    3.6770   15.0100 H   0  0  0  0  0  0  0  0  0  0  0  0
    1.5980    9.0550   17.9780 O   0  0  0  0  0  0  0  0  0  0  0  0
    1.6260    8.5330   19.0860 C   0  0  0  0  0  0  0  0  0  0  0  0
    2.2920    7.3550   19.3590 N   0  0  0  0  0  0  0  0  0  0  0  0
    2.3200    7.0000   20.3040 H   0  0  0  0  0  0  0  0  0  0  0  0
    0.9380    9.1900   20.2290 C   0  0  0  0  0  0  0  0  0  0  0  0
    1.1230    8.6530   21.5030 C   0  0  0  0  0  0  0  0  0  0  0  0
    0.4870    9.2670   22.5660 C   0  0  0  0  0  0  0  0  0  0  0  0
   -0.2950   10.3590   22.4380 N   0  0  0  0  0  0  0  0  0  0  0  0
   -0.4380   10.8710   21.1970 C   0  0  0  0  0  0  0  0  0  0  0  0
    0.1520   10.3310   20.0680 C   0  0  0  0  0  0  0  0  0  0  0  0
    1.7440    7.7780   21.6610 H   0  0  0  0  0  0  0  0  0  0  0  0
    0.5930    8.8860   23.5780 H   0  0  0  0  0  0  0  0  0  0  0  0
   -1.0570   11.7630   21.1350 H   0  0  0  0  0  0  0  0  0  0  0  0
    0.0190   10.8160   19.1100 H   0  0  0  0  0  0  0  0  0  0  0  0
  1  6  1  0  0  0  0
  1 29  1  0  0  0  0
  2  1  1  0  0  0  0
  2  9  1  0  0  0  0
  3  2  1  0  0  0  0
  3 10  1  0  0  0  0
  4  5  1  0  0  0  0
  4  3  1  0  0  0  0
  5 13  1  0  0  0  0
  5  6  1  0  0  0  0
  6 15  1  0  0  0  0
  6 14  1  0  0  0  0
  7  1  1  0  0  0  0
  8  2  1  0  0  0  0
 11  3  1  0  0  0  0
 12  5  1  0  0  0  0
 16  4  1  0  0  0  0
 17 16  1  0  0  0  0
 17 23  1  0  0  0  0
 18 17  2  0  0  0  0
 19 21  2  0  0  0  0
 19 18  1  0  0  0  0
 20 19  1  0  0  0  0
 21 22  1  0  0  0  0
 22 26  1  0  0  0  0
 22 16  2  0  0  0  0
 24 18  1  0  0  0  0
 25 21  1  0  0  0  0
 27 28  2  0  0  0  0
 28 29  1  0  0  0  0
 28 31  1  0  0  0  0
 29 30  1  0  0  0  0
 31 32  1  0  0  0  0
 32 37  1  0  0  0  0
 32 33  2  0  0  0  0
 33 38  1  0  0  0  0
 34 33  1  0  0  0  0
 35 34  2  0  0  0  0
 36 31  2  0  0  0  0
 36 35  1  0  0  0  0
 39 35  1  0  0  0  0
 40 36  1  0  0  0  0
M  END
>  <MODEL>
1

>  <REMARK>
 VINA RESULT:    -6.412      0.000      0.000
 INTER + INTRA:          -8.134
 INTER:                  -7.526
 INTRA:                  -0.607
 UNBOUND:                -0.597
  Name = 
  3 active torsions:
  status: ('A' for Active; 'I' for Inactive)
    1  A    between atoms: C_2  and  C_17
    2  A    between atoms: N_3  and  C_4
    3  A    between atoms: N_7  and  C_8
                            x       y       z     vdW  Elec       q    Type
                         _______ _______ _______ _____ _____    ______ ____

>  <TORSDO>
F 3

$$$$
=
 OpenBabel07192307433D

 40 42  0  0  0  0  0  0  0  0999 V2000
    2.9610    6.6010   18.2930 C   0  0  0  0  0  0  0  0  0  0  0  0
    4.4230    7.0620   18.1560 C   0  0  0  0  0  0  0  0  0  0  0  0
    5.3960    5.8880   18.0950 C   0  0  0  0  0  0  0  0  0  0  0  0
    4.9020    4.8800   17.1620 N   0  0  0  0  0  0  0  0  0  0  0  0
    3.5690    4.3200   17.4320 C   0  0  0  0  0  0  0  0  0  0  0  0
    2.8470    5.0920   18.5360 C   0  0  0  0  0  0  0  0  0  0  0  0
    2.4470    6.8310   17.3500 H   0  0  0  0  0  0  0  0  0  0  0  0
    4.5160    7.6600   17.2400 H   0  0  0  0  0  0  0  0  0  0  0  0
    4.7200    7.7230   18.9790 H   0  0  0  0  0  0  0  0  0  0  0  0
    5.4820    5.4310   19.0900 H   0  0  0  0  0  0  0  0  0  0  0  0
    6.4090    6.2360   17.8670 H   0  0  0  0  0  0  0  0  0  0  0  0
    2.9480    4.3670   16.5280 H   0  0  0  0  0  0  0  0  0  0  0  0
    3.6580    3.2690   17.7270 H   0  0  0  0  0  0  0  0  0  0  0  0
    3.2700    4.8370   19.5170 H   0  0  0  0  0  0  0  0  0  0  0  0
    1.7970    4.7790   18.5700 H   0  0  0  0  0  0  0  0  0  0  0  0
    5.4750    4.6700   15.9130 C   0  0  0  0  0  0  0  0  0  0  0  0
    4.7850    3.9630   14.9100 C   0  0  0  0  0  0  0  0  0  0  0  0
    5.3400    3.7310   13.6440 C   0  0  0  0  0  0  0  0  0  0  0  0
    6.6110    4.2060   13.3530 C   0  0  0  0  0  0  0  0  0  0  0  0
    7.3000    3.9270   11.8040 Cl  0  0  0  0  0  0  0  0  0  0  0  0
    7.3240    4.9080   14.3160 C   0  0  0  0  0  0  0  0  0  0  0  0
    6.7590    5.1320   15.5780 C   0  0  0  0  0  0  0  0  0  0  0  0
    3.7980    3.5540   15.1070 H   0  0  0  0  0  0  0  0  0  0  0  0
    4.7730    3.1750   12.9030 H   0  0  0  0  0  0  0  0  0  0  0  0
    8.3160    5.2910   14.0960 H   0  0  0  0  0  0  0  0  0  0  0  0
    7.3460    5.7100   16.2850 H   0  0  0  0  0  0  0  0  0  0  0  0
    1.5590    9.0400   17.9600 O   0  0  0  0  0  0  0  0  0  0  0  0
    1.5870    8.5170   19.0680 C   0  0  0  0  0  0  0  0  0  0  0  0
    2.2680    7.3480   19.3430 N   0  0  0  0  0  0  0  0  0  0  0  0
    2.2960    6.9920   20.2880 H   0  0  0  0  0  0  0  0  0  0  0  0
    0.8840    9.1630   20.2070 C   0  0  0  0  0  0  0  0  0  0  0  0
    1.0840    8.6390   21.4840 C   0  0  0  0  0  0  0  0  0  0  0  0
    0.4340    9.2430   22.5440 C   0  0  0  0  0  0  0  0  0  0  0  0
   -0.3760   10.3150   22.4100 N   0  0  0  0  0  0  0  0  0  0  0  0
   -0.5340   10.8140   21.1660 C   0  0  0  0  0  0  0  0  0  0  0  0
    0.0690   10.2820   20.0400 C   0  0  0  0  0  0  0  0  0  0  0  0
    1.7290    7.7820   21.6470 H   0  0  0  0  0  0  0  0  0  0  0  0
    0.5520    8.8720   23.5580 H   0  0  0  0  0  0  0  0  0  0  0  0
   -1.1760   11.6890   21.0990 H   0  0  0  0  0  0  0  0  0  0  0  0
   -0.0780   10.7580   19.0790 H   0  0  0  0  0  0  0  0  0  0  0  0
  1  6  1  0  0  0  0
  1 29  1  0  0  0  0
  2  1  1  0  0  0  0
  2  9  1  0  0  0  0
  3  2  1  0  0  0  0
  3 10  1  0  0  0  0
  4  5  1  0  0  0  0
  4  3  1  0  0  0  0
  5 13  1  0  0  0  0
  5  6  1  0  0  0  0
  6 15  1  0  0  0  0
  6 14  1  0  0  0  0
  7  1  1  0  0  0  0
  8  2  1  0  0  0  0
 11  3  1  0  0  0  0
 12  5  1  0  0  0  0
 16  4  1  0  0  0  0
 17 23  1  0  0  0  0
 17 16  2  0  0  0  0
 18 17  1  0  0  0  0
 19 18  2  0  0  0  0
 19 21  1  0  0  0  0
 20 19  1  0  0  0  0
 21 22  2  0  0  0  0
 22 16  1  0  0  0  0
 22 26  1  0  0  0  0
 24 18  1  0  0  0  0
 25 21  1  0  0  0  0
 27 28  2  0  0  0  0
 28 29  1  0  0  0  0
 28 31  1  0  0  0  0
 29 30  1  0  0  0  0
 31 32  1  0  0  0  0
 32 37  1  0  0  0  0
 32 33  2  0  0  0  0
 33 38  1  0  0  0  0
 34 33  1  0  0  0  0
 35 34  2  0  0  0  0
 36 31  2  0  0  0  0
 36 35  1  0  0  0  0
 39 35  1  0  0  0  0
 40 36  1  0  0  0  0
M  END
>  <MODEL>
2

>  <REMARK>
 VINA RESULT:    -6.398      0.066      1.022
 INTER + INTRA:          -8.117
 INTER:                  -7.501
 INTRA:                  -0.617
 UNBOUND:                -0.597
  Name = 
  3 active torsions:
  status: ('A' for Active; 'I' for Inactive)
    1  A    between atoms: C_2  and  C_17
    2  A    between atoms: N_3  and  C_4
    3  A    between atoms: N_7  and  C_8
                            x       y       z     vdW  Elec       q    Type
                         _______ _______ _______ _____ _____    ______ ____

>  <TORSDO>
F 3

$$$$
=
 OpenBabel07192307433D

 40 42  0  0  0  0  0  0  0  0999 V2000
    0.8860    9.1290   19.6050 C   0  0  0  0  0  0  0  0  0  0  0  0
    1.3300    9.9180   20.8510 C   0  0  0  0  0  0  0  0  0  0  0  0
    0.9160   11.3850   20.7840 C   0  0  0  0  0  0  0  0  0  0  0  0
   -0.4780   11.4910   20.3630 N   0  0  0  0  0  0  0  0  0  0  0  0
   -0.8290   10.8850   19.0690 C   0  0  0  0  0  0  0  0  0  0  0  0
    0.3160   10.0400   18.5130 C   0  0  0  0  0  0  0  0  0  0  0  0
    0.0930    8.4340   19.9130 H   0  0  0  0  0  0  0  0  0  0  0  0
    0.8790    9.4530   21.7360 H   0  0  0  0  0  0  0  0  0  0  0  0
    2.4150    9.8640   21.0010 H   0  0  0  0  0  0  0  0  0  0  0  0
    1.5420   11.9090   20.0500 H   0  0  0  0  0  0  0  0  0  0  0  0
    1.1250   11.8900   21.7330 H   0  0  0  0  0  0  0  0  0  0  0  0
   -1.7050   10.2320   19.1820 H   0  0  0  0  0  0  0  0  0  0  0  0
   -1.0830   11.6690   18.3460 H   0  0  0  0  0  0  0  0  0  0  0  0
    1.1070   10.6890   18.1140 H   0  0  0  0  0  0  0  0  0  0  0  0
   -0.0470    9.4520   17.6610 H   0  0  0  0  0  0  0  0  0  0  0  0
   -1.5010   11.8420   21.2360 C   0  0  0  0  0  0  0  0  0  0  0  0
   -2.6240   12.5590   20.7840 C   0  0  0  0  0  0  0  0  0  0  0  0
   -3.6670   12.9320   21.6440 C   0  0  0  0  0  0  0  0  0  0  0  0
   -3.6050   12.5910   22.9870 C   0  0  0  0  0  0  0  0  0  0  0  0
   -4.8790   13.0440   24.0490 Cl  0  0  0  0  0  0  0  0  0  0  0  0
   -2.5130   11.8840   23.4720 C   0  0  0  0  0  0  0  0  0  0  0  0
   -1.4760   11.5180   22.6030 C   0  0  0  0  0  0  0  0  0  0  0  0
   -2.6980   12.8670   19.7450 H   0  0  0  0  0  0  0  0  0  0  0  0
   -4.5120   13.4910   21.2520 H   0  0  0  0  0  0  0  0  0  0  0  0
   -2.4580   11.6050   24.5210 H   0  0  0  0  0  0  0  0  0  0  0  0
   -0.6590   10.9420   23.0260 H   0  0  0  0  0  0  0  0  0  0  0  0
    1.6560    6.5680   20.5370 O   0  0  0  0  0  0  0  0  0  0  0  0
    2.2550    7.0600   19.5890 C   0  0  0  0  0  0  0  0  0  0  0  0
    1.9800    8.3140   19.0800 N   0  0  0  0  0  0  0  0  0  0  0  0
    2.5430    8.6860   18.3280 H   0  0  0  0  0  0  0  0  0  0  0  0
    3.3630    6.3070   18.9440 C   0  0  0  0  0  0  0  0  0  0  0  0
    3.8050    6.7330   17.6920 C   0  0  0  0  0  0  0  0  0  0  0  0
    4.8380    6.0340   17.0950 C   0  0  0  0  0  0  0  0  0  0  0  0
    5.4460    4.9700   17.6610 N   0  0  0  0  0  0  0  0  0  0  0  0
    5.0120    4.5940   18.8830 C   0  0  0  0  0  0  0  0  0  0  0  0
    3.9850    5.2230   19.5640 C   0  0  0  0  0  0  0  0  0  0  0  0
    3.3540    7.5850   17.1950 H   0  0  0  0  0  0  0  0  0  0  0  0
    5.2170    6.3210   16.1180 H   0  0  0  0  0  0  0  0  0  0  0  0
    5.5380    3.7470   19.3180 H   0  0  0  0  0  0  0  0  0  0  0  0
    3.7140    4.8850   20.5560 H   0  0  0  0  0  0  0  0  0  0  0  0
  1  7  1  0  0  0  0
  1  2  1  0  0  0  0
  2  9  1  0  0  0  0
  2  8  1  0  0  0  0
  3  2  1  0  0  0  0
  3 11  1  0  0  0  0
  4  3  1  0  0  0  0
  4 16  1  0  0  0  0
  5 12  1  0  0  0  0
  5  4  1  0  0  0  0
  6  5  1  0  0  0  0
  6  1  1  0  0  0  0
 10  3  1  0  0  0  0
 13  5  1  0  0  0  0
 14  6  1  0  0  0  0
 15  6  1  0  0  0  0
 16 22  1  0  0  0  0
 17 16  2  0  0  0  0
 17 18  1  0  0  0  0
 18 19  2  0  0  0  0
 19 21  1  0  0  0  0
 19 20  1  0  0  0  0
 21 25  1  0  0  0  0
 22 26  1  0  0  0  0
 22 21  2  0  0  0  0
 23 17  1  0  0  0  0
 24 18  1  0  0  0  0
 28 27  2  0  0  0  0
 29 28  1  0  0  0  0
 29  1  1  0  0  0  0
 30 29  1  0  0  0  0
 31 36  1  0  0  0  0
 31 28  1  0  0  0  0
 32 31  2  0  0  0  0
 33 34  2  0  0  0  0
 33 32  1  0  0  0  0
 34 35  1  0  0  0  0
 35 39  1  0  0  0  0
 35 36  2  0  0  0  0
 36 40  1  0  0  0  0
 37 32  1  0  0  0  0
 38 33  1  0  0  0  0
M  END
>  <MODEL>
3

>  <REMARK>
 VINA RESULT:    -6.173      4.740      9.905
 INTER + INTRA:          -7.853
 INTER:                  -7.301
 INTRA:                  -0.552
 UNBOUND:                -0.597
  Name = 
  3 active torsions:
  status: ('A' for Active; 'I' for Inactive)
    1  A    between atoms: C_2  and  C_17
    2  A    between atoms: N_3  and  C_4
    3  A    between atoms: N_7  and  C_8
                            x       y       z     vdW  Elec       q    Type
                         _______ _______ _______ _____ _____    ______ ____

>  <TORSDO>
F 3

$$$$
=
 OpenBabel07192307433D

 40 42  0  0  0  0  0  0  0  0999 V2000
    0.8540    9.1380   19.5880 C   0  0  0  0  0  0  0  0  0  0  0  0
    1.3020    9.9570   20.8120 C   0  0  0  0  0  0  0  0  0  0  0  0
    0.8960   11.4230   20.7070 C   0  0  0  0  0  0  0  0  0  0  0  0
   -0.4980   11.5250   20.2840 N   0  0  0  0  0  0  0  0  0  0  0  0
   -0.8540   10.8870   19.0070 C   0  0  0  0  0  0  0  0  0  0  0  0
    0.2870   10.0230   18.4720 C   0  0  0  0  0  0  0  0  0  0  0  0
    0.0570    8.4540   19.9150 H   0  0  0  0  0  0  0  0  0  0  0  0
    0.8500    9.5170   21.7100 H   0  0  0  0  0  0  0  0  0  0  0  0
    2.3870    9.9010   20.9620 H   0  0  0  0  0  0  0  0  0  0  0  0
    1.5240   11.9250   19.9600 H   0  0  0  0  0  0  0  0  0  0  0  0
    1.1080   11.9520   21.6420 H   0  0  0  0  0  0  0  0  0  0  0  0
   -1.7330   10.2410   19.1370 H   0  0  0  0  0  0  0  0  0  0  0  0
   -1.1050   11.6530   18.2640 H   0  0  0  0  0  0  0  0  0  0  0  0
    1.0810   10.6570   18.0560 H   0  0  0  0  0  0  0  0  0  0  0  0
   -0.0800    9.4140   17.6370 H   0  0  0  0  0  0  0  0  0  0  0  0
   -1.5190   11.9040   21.1490 C   0  0  0  0  0  0  0  0  0  0  0  0
   -1.4670   11.5750   22.5170 C   0  0  0  0  0  0  0  0  0  0  0  0
   -2.4830   11.9380   23.4100 C   0  0  0  0  0  0  0  0  0  0  0  0
   -3.5850   12.6440   22.9480 C   0  0  0  0  0  0  0  0  0  0  0  0
   -4.8380   13.0940   24.0360 Cl  0  0  0  0  0  0  0  0  0  0  0  0
   -3.6730   12.9870   21.6050 C   0  0  0  0  0  0  0  0  0  0  0  0
   -2.6510   12.6170   20.7220 C   0  0  0  0  0  0  0  0  0  0  0  0
   -0.6330   11.0020   22.9130 H   0  0  0  0  0  0  0  0  0  0  0  0
   -2.4050   11.6590   24.4570 H   0  0  0  0  0  0  0  0  0  0  0  0
   -4.5280   13.5460   21.2340 H   0  0  0  0  0  0  0  0  0  0  0  0
   -2.7540   12.9320   19.6880 H   0  0  0  0  0  0  0  0  0  0  0  0
    1.6040    6.5920   20.5780 O   0  0  0  0  0  0  0  0  0  0  0  0
    2.2080    7.0590   19.6200 C   0  0  0  0  0  0  0  0  0  0  0  0
    1.9440    8.3030   19.0830 N   0  0  0  0  0  0  0  0  0  0  0  0
    2.5100    8.6550   18.3250 H   0  0  0  0  0  0  0  0  0  0  0  0
    3.3130    6.2840   18.9950 C   0  0  0  0  0  0  0  0  0  0  0  0
    3.7710    5.1440   19.6560 C   0  0  0  0  0  0  0  0  0  0  0  0
    4.7940    4.4220   19.0720 C   0  0  0  0  0  0  0  0  0  0  0  0
    5.3670    4.7550   17.8960 N   0  0  0  0  0  0  0  0  0  0  0  0
    4.8890    5.8500   17.2680 C   0  0  0  0  0  0  0  0  0  0  0  0
    3.8710    6.6420   17.7680 C   0  0  0  0  0  0  0  0  0  0  0  0
    3.3420    4.8300   20.6010 H   0  0  0  0  0  0  0  0  0  0  0  0
    5.1920    3.5290   19.5470 H   0  0  0  0  0  0  0  0  0  0  0  0
    5.3590    6.0760   16.3140 H   0  0  0  0  0  0  0  0  0  0  0  0
    3.5170    7.4870   17.1910 H   0  0  0  0  0  0  0  0  0  0  0  0
  1  7  1  0  0  0  0
  1  2  1  0  0  0  0
  2  9  1  0  0  0  0
  2  8  1  0  0  0  0
  3  2  1  0  0  0  0
  3 11  1  0  0  0  0
  4  3  1  0  0  0  0
  4 16  1  0  0  0  0
  5 12  1  0  0  0  0
  5  4  1  0  0  0  0
  6  5  1  0  0  0  0
  6  1  1  0  0  0  0
 10  3  1  0  0  0  0
 13  5  1  0  0  0  0
 14  6  1  0  0  0  0
 15  6  1  0  0  0  0
 16 17  1  0  0  0  0
 17 23  1  0  0  0  0
 17 18  2  0  0  0  0
 18 24  1  0  0  0  0
 19 18  1  0  0  0  0
 19 20  1  0  0  0  0
 21 19  2  0  0  0  0
 22 16  2  0  0  0  0
 22 21  1  0  0  0  0
 25 21  1  0  0  0  0
 26 22  1  0  0  0  0
 28 27  2  0  0  0  0
 29  1  1  0  0  0  0
 29 28  1  0  0  0  0
 30 29  1  0  0  0  0
 31 28  1  0  0  0  0
 31 32  1  0  0  0  0
 32 37  1  0  0  0  0
 33 38  1  0  0  0  0
 33 32  2  0  0  0  0
 34 33  1  0  0  0  0
 35 36  1  0  0  0  0
 35 34  2  0  0  0  0
 36 31  2  0  0  0  0
 39 35  1  0  0  0  0
 40 36  1  0  0  0  0
M  END
>  <MODEL>
4

>  <REMARK>
 VINA RESULT:    -6.148      4.747      9.828
 INTER + INTRA:          -7.824
 INTER:                  -7.288
 INTRA:                  -0.535
 UNBOUND:                -0.597
  Name = 
  3 active torsions:
  status: ('A' for Active; 'I' for Inactive)
    1  A    between atoms: C_2  and  C_17
    2  A    between atoms: N_3  and  C_4
    3  A    between atoms: N_7  and  C_8
                            x       y       z     vdW  Elec       q    Type
                         _______ _______ _______ _____ _____    ______ ____

>  <TORSDO>
F 3

$$$$
=
 OpenBabel07192307433D

 40 42  0  0  0  0  0  0  0  0999 V2000
    0.8490    9.1200   19.6070 C   0  0  0  0  0  0  0  0  0  0  0  0
    1.2910    9.9380   20.8340 C   0  0  0  0  0  0  0  0  0  0  0  0
    0.8920   11.4060   20.7260 C   0  0  0  0  0  0  0  0  0  0  0  0
   -0.4980   11.5130   20.2920 N   0  0  0  0  0  0  0  0  0  0  0  0
   -0.8460   10.8770   19.0120 C   0  0  0  0  0  0  0  0  0  0  0  0
    0.2960   10.0070   18.4870 C   0  0  0  0  0  0  0  0  0  0  0  0
    0.0480    8.4400   19.9270 H   0  0  0  0  0  0  0  0  0  0  0  0
    0.8300    9.4990   21.7290 H   0  0  0  0  0  0  0  0  0  0  0  0
    2.3750    9.8780   20.9940 H   0  0  0  0  0  0  0  0  0  0  0  0
    1.5280   11.9050   19.9840 H   0  0  0  0  0  0  0  0  0  0  0  0
    1.0990   11.9340   21.6630 H   0  0  0  0  0  0  0  0  0  0  0  0
   -1.7290   10.2350   19.1360 H   0  0  0  0  0  0  0  0  0  0  0  0
   -1.0880   11.6430   18.2670 H   0  0  0  0  0  0  0  0  0  0  0  0
    1.0950   10.6380   18.0770 H   0  0  0  0  0  0  0  0  0  0  0  0
   -0.0670    9.4000   17.6490 H   0  0  0  0  0  0  0  0  0  0  0  0
   -1.5240   11.8960   21.1490 C   0  0  0  0  0  0  0  0  0  0  0  0
   -1.4780   11.5800   22.5200 C   0  0  0  0  0  0  0  0  0  0  0  0
   -2.5000   11.9480   23.4050 C   0  0  0  0  0  0  0  0  0  0  0  0
   -3.6020   12.6460   22.9310 C   0  0  0  0  0  0  0  0  0  0  0  0
   -4.8610   13.1020   24.0090 Cl  0  0  0  0  0  0  0  0  0  0  0  0
   -3.6850   12.9760   21.5850 C   0  0  0  0  0  0  0  0  0  0  0  0
   -2.6570   12.6010   20.7090 C   0  0  0  0  0  0  0  0  0  0  0  0
   -0.6440   11.0140   22.9250 H   0  0  0  0  0  0  0  0  0  0  0  0
   -2.4250   11.6780   24.4550 H   0  0  0  0  0  0  0  0  0  0  0  0
   -4.5390   13.5280   21.2050 H   0  0  0  0  0  0  0  0  0  0  0  0
   -2.7560   12.9070   19.6730 H   0  0  0  0  0  0  0  0  0  0  0  0
    1.5670    6.5620   20.5890 O   0  0  0  0  0  0  0  0  0  0  0  0
    2.1880    7.0320   19.6430 C   0  0  0  0  0  0  0  0  0  0  0  0
    1.9400    8.2810   19.1110 N   0  0  0  0  0  0  0  0  0  0  0  0
    2.5190    8.6340   18.3630 H   0  0  0  0  0  0  0  0  0  0  0  0
    3.2950    6.2530   19.0270 C   0  0  0  0  0  0  0  0  0  0  0  0
    3.7830    6.6710   17.7890 C   0  0  0  0  0  0  0  0  0  0  0  0
    4.8140    5.9490   17.2200 C   0  0  0  0  0  0  0  0  0  0  0  0
    5.3790    4.8690   17.7990 N   0  0  0  0  0  0  0  0  0  0  0  0
    4.9030    4.5000   19.0070 C   0  0  0  0  0  0  0  0  0  0  0  0
    3.8720    5.1520   19.6610 C   0  0  0  0  0  0  0  0  0  0  0  0
    3.3670    7.5350   17.2830 H   0  0  0  0  0  0  0  0  0  0  0  0
    5.2280    6.2290   16.2540 H   0  0  0  0  0  0  0  0  0  0  0  0
    5.3950    3.6390   19.4530 H   0  0  0  0  0  0  0  0  0  0  0  0
    3.5650    4.8190   20.6430 H   0  0  0  0  0  0  0  0  0  0  0  0
  1  7  1  0  0  0  0
  1  2  1  0  0  0  0
  2  9  1  0  0  0  0
  2  8  1  0  0  0  0
  3  2  1  0  0  0  0
  3 11  1  0  0  0  0
  4  3  1  0  0  0  0
  4 16  1  0  0  0  0
  5 12  1  0  0  0  0
  5  4  1  0  0  0  0
  6  5  1  0  0  0  0
  6  1  1  0  0  0  0
 10  3  1  0  0  0  0
 13  5  1  0  0  0  0
 14  6  1  0  0  0  0
 15  6  1  0  0  0  0
 16 17  1  0  0  0  0
 17 23  1  0  0  0  0
 17 18  2  0  0  0  0
 18 24  1  0  0  0  0
 19 18  1  0  0  0  0
 19 20  1  0  0  0  0
 21 19  2  0  0  0  0
 22 16  2  0  0  0  0
 22 21  1  0  0  0  0
 25 21  1  0  0  0  0
 26 22  1  0  0  0  0
 28 27  2  0  0  0  0
 29  1  1  0  0  0  0
 29 28  1  0  0  0  0
 30 29  1  0  0  0  0
 31 28  1  0  0  0  0
 31 36  1  0  0  0  0
 32 31  2  0  0  0  0
 33 32  1  0  0  0  0
 33 34  2  0  0  0  0
 34 35  1  0  0  0  0
 35 39  1  0  0  0  0
 35 36  2  0  0  0  0
 36 40  1  0  0  0  0
 37 32  1  0  0  0  0
 38 33  1  0  0  0  0
M  END
>  <MODEL>
5

>  <REMARK>
 VINA RESULT:    -6.135      4.753      9.871
 INTER + INTRA:          -7.809
 INTER:                  -7.261
 INTRA:                  -0.548
 UNBOUND:                -0.597
  Name = 
  3 active torsions:
  status: ('A' for Active; 'I' for Inactive)
    1  A    between atoms: C_2  and  C_17
    2  A    between atoms: N_3  and  C_4
    3  A    between atoms: N_7  and  C_8
                            x       y       z     vdW  Elec       q    Type
                         _______ _______ _______ _____ _____    ______ ____

>  <TORSDO>
F 3

$$$$
=
 OpenBabel07192307433D

 40 42  0  0  0  0  0  0  0  0999 V2000
    1.4560    8.8960   20.0980 C   0  0  0  0  0  0  0  0  0  0  0  0
    1.6130    7.4730   20.6640 C   0  0  0  0  0  0  0  0  0  0  0  0
    1.6990    6.4190   19.5640 C   0  0  0  0  0  0  0  0  0  0  0  0
    2.6320    6.8550   18.5290 N   0  0  0  0  0  0  0  0  0  0  0  0
    2.3440    8.1400   17.8730 C   0  0  0  0  0  0  0  0  0  0  0  0
    1.2230    8.8970   18.5840 C   0  0  0  0  0  0  0  0  0  0  0  0
    2.3900    9.4410   20.2970 H   0  0  0  0  0  0  0  0  0  0  0  0
    2.5260    7.4400   21.2730 H   0  0  0  0  0  0  0  0  0  0  0  0
    0.7900    7.2120   21.3400 H   0  0  0  0  0  0  0  0  0  0  0  0
    0.7100    6.2850   19.1080 H   0  0  0  0  0  0  0  0  0  0  0  0
    1.9410    5.4380   19.9860 H   0  0  0  0  0  0  0  0  0  0  0  0
    3.2380    8.7780   17.8800 H   0  0  0  0  0  0  0  0  0  0  0  0
    2.0590    7.9710   16.8280 H   0  0  0  0  0  0  0  0  0  0  0  0
    0.2510    8.4410   18.3530 H   0  0  0  0  0  0  0  0  0  0  0  0
    1.1740    9.9210   18.1950 H   0  0  0  0  0  0  0  0  0  0  0  0
    3.8920    6.2900   18.3690 C   0  0  0  0  0  0  0  0  0  0  0  0
    4.7030    6.6290   17.2690 C   0  0  0  0  0  0  0  0  0  0  0  0
    5.9740    6.0710   17.0790 C   0  0  0  0  0  0  0  0  0  0  0  0
    6.4640    5.1500   17.9950 C   0  0  0  0  0  0  0  0  0  0  0  0
    8.0220    4.4600   17.7710 Cl  0  0  0  0  0  0  0  0  0  0  0  0
    5.6940    4.7900   19.0930 C   0  0  0  0  0  0  0  0  0  0  0  0
    4.4240    5.3540   19.2710 C   0  0  0  0  0  0  0  0  0  0  0  0
    4.3450    7.3270   16.5170 H   0  0  0  0  0  0  0  0  0  0  0  0
    6.5630    6.3570   16.2130 H   0  0  0  0  0  0  0  0  0  0  0  0
    6.0710    4.0760   19.8200 H   0  0  0  0  0  0  0  0  0  0  0  0
    3.8740    5.0600   20.1590 H   0  0  0  0  0  0  0  0  0  0  0  0
    1.3250   11.7000   20.4800 O   0  0  0  0  0  0  0  0  0  0  0  0
    0.4070   11.0000   20.8920 C   0  0  0  0  0  0  0  0  0  0  0  0
    0.3900    9.6230   20.7860 N   0  0  0  0  0  0  0  0  0  0  0  0
   -0.3720    9.0970   21.1900 H   0  0  0  0  0  0  0  0  0  0  0  0
   -0.7530   11.6310   21.5740 C   0  0  0  0  0  0  0  0  0  0  0  0
   -1.4230   12.6600   20.9130 C   0  0  0  0  0  0  0  0  0  0  0  0
   -2.5050   13.2440   21.5460 C   0  0  0  0  0  0  0  0  0  0  0  0
   -2.9510   12.8660   22.7630 N   0  0  0  0  0  0  0  0  0  0  0  0
   -2.2980   11.8530   23.3700 C   0  0  0  0  0  0  0  0  0  0  0  0
   -1.2040   11.2050   22.8240 C   0  0  0  0  0  0  0  0  0  0  0  0
   -1.1080   12.9990   19.9320 H   0  0  0  0  0  0  0  0  0  0  0  0
   -3.0580   14.0530   21.0770 H   0  0  0  0  0  0  0  0  0  0  0  0
   -2.6970   11.5610   24.3380 H   0  0  0  0  0  0  0  0  0  0  0  0
   -0.7510   10.3780   23.3550 H   0  0  0  0  0  0  0  0  0  0  0  0
  1  7  1  0  0  0  0
  1  2  1  0  0  0  0
  1 29  1  0  0  0  0
  2  8  1  0  0  0  0
  2  9  1  0  0  0  0
  3 11  1  0  0  0  0
  3  2  1  0  0  0  0
  4  3  1  0  0  0  0
  5 12  1  0  0  0  0
  5  4  1  0  0  0  0
  5  6  1  0  0  0  0
  6  1  1  0  0  0  0
 10  3  1  0  0  0  0
 13  5  1  0  0  0  0
 14  6  1  0  0  0  0
 15  6  1  0  0  0  0
 16  4  1  0  0  0  0
 16 22  1  0  0  0  0
 17 16  2  0  0  0  0
 18 17  1  0  0  0  0
 18 19  2  0  0  0  0
 19 21  1  0  0  0  0
 20 19  1  0  0  0  0
 21 22  2  0  0  0  0
 21 25  1  0  0  0  0
 22 26  1  0  0  0  0
 23 17  1  0  0  0  0
 24 18  1  0  0  0  0
 27 28  2  0  0  0  0
 28 31  1  0  0  0  0
 29 28  1  0  0  0  0
 29 30  1  0  0  0  0
 31 36  1  0  0  0  0
 32 33  1  0  0  0  0
 32 31  2  0  0  0  0
 33 34  2  0  0  0  0
 34 35  1  0  0  0  0
 35 39  1  0  0  0  0
 36 40  1  0  0  0  0
 36 35  2  0  0  0  0
 37 32  1  0  0  0  0
 38 33  1  0  0  0  0
M  END
>  <MODEL>
6

>  <REMARK>
 VINA RESULT:    -6.112      2.622      4.022
 INTER + INTRA:          -7.782
 INTER:                  -7.240
 INTRA:                  -0.541
 UNBOUND:                -0.597
  Name = 
  3 active torsions:
  status: ('A' for Active; 'I' for Inactive)
    1  A    between atoms: C_2  and  C_17
    2  A    between atoms: N_3  and  C_4
    3  A    between atoms: N_7  and  C_8
                            x       y       z     vdW  Elec       q    Type
                         _______ _______ _______ _____ _____    ______ ____

>  <TORSDO>
F 3

$$$$
=
 OpenBabel07192307433D

 40 42  0  0  0  0  0  0  0  0999 V2000
    1.1510    8.3920   20.3270 C   0  0  0  0  0  0  0  0  0  0  0  0
    1.2670    8.9380   21.7610 C   0  0  0  0  0  0  0  0  0  0  0  0
    1.2140   10.4620   21.8070 C   0  0  0  0  0  0  0  0  0  0  0  0
    0.1180   10.9470   20.9730 N   0  0  0  0  0  0  0  0  0  0  0  0
    0.1400   10.5590   19.5540 C   0  0  0  0  0  0  0  0  0  0  0  0
    1.2110    9.5050   19.2750 C   0  0  0  0  0  0  0  0  0  0  0  0
    0.1760    7.8930   20.2350 H   0  0  0  0  0  0  0  0  0  0  0  0
    0.4430    8.5260   22.3580 H   0  0  0  0  0  0  0  0  0  0  0  0
    2.1900    8.6030   22.2500 H   0  0  0  0  0  0  0  0  0  0  0  0
    2.1550   10.8730   21.4190 H   0  0  0  0  0  0  0  0  0  0  0  0
    1.1660   10.8170   22.8420 H   0  0  0  0  0  0  0  0  0  0  0  0
   -0.8310   10.1380   19.2610 H   0  0  0  0  0  0  0  0  0  0  0  0
    0.3280   11.4390   18.9290 H   0  0  0  0  0  0  0  0  0  0  0  0
    2.2070    9.9670   19.2730 H   0  0  0  0  0  0  0  0  0  0  0  0
    1.0660    9.1000   18.2660 H   0  0  0  0  0  0  0  0  0  0  0  0
   -1.0560   11.4670   21.5060 C   0  0  0  0  0  0  0  0  0  0  0  0
   -1.9560   12.1930   20.7030 C   0  0  0  0  0  0  0  0  0  0  0  0
   -3.1430   12.7340   21.2140 C   0  0  0  0  0  0  0  0  0  0  0  0
   -3.4570   12.5580   22.5550 C   0  0  0  0  0  0  0  0  0  0  0  0
   -4.9110   13.2180   23.1910 Cl  0  0  0  0  0  0  0  0  0  0  0  0
   -2.5950   11.8480   23.3790 C   0  0  0  0  0  0  0  0  0  0  0  0
   -1.4100   11.3130   22.8560 C   0  0  0  0  0  0  0  0  0  0  0  0
   -1.7340   12.3740   19.6550 H   0  0  0  0  0  0  0  0  0  0  0  0
   -3.8050   13.2930   20.5590 H   0  0  0  0  0  0  0  0  0  0  0  0
   -2.8350   11.6980   24.4280 H   0  0  0  0  0  0  0  0  0  0  0  0
   -0.7850   10.7430   23.5360 H   0  0  0  0  0  0  0  0  0  0  0  0
    0.8870    5.6070   20.7730 O   0  0  0  0  0  0  0  0  0  0  0  0
    1.9290    6.0360   20.2900 C   0  0  0  0  0  0  0  0  0  0  0  0
    2.1700    7.3770   20.0630 N   0  0  0  0  0  0  0  0  0  0  0  0
    3.0680    7.6730   19.7090 H   0  0  0  0  0  0  0  0  0  0  0  0
    3.0250    5.0930   19.9430 C   0  0  0  0  0  0  0  0  0  0  0  0
    2.8290    3.7360   20.2000 C   0  0  0  0  0  0  0  0  0  0  0  0
    3.8470    2.8600   19.8740 C   0  0  0  0  0  0  0  0  0  0  0  0
    5.0130    3.2440   19.3130 N   0  0  0  0  0  0  0  0  0  0  0  0
    5.1660    4.5600   19.0550 C   0  0  0  0  0  0  0  0  0  0  0  0
    4.2110    5.5190   19.3460 C   0  0  0  0  0  0  0  0  0  0  0  0
    1.9090    3.3740   20.6460 H   0  0  0  0  0  0  0  0  0  0  0  0
    3.7480    1.7930   20.0580 H   0  0  0  0  0  0  0  0  0  0  0  0
    6.1080    4.8310   18.5840 H   0  0  0  0  0  0  0  0  0  0  0  0
    4.3910    6.5520   19.0790 H   0  0  0  0  0  0  0  0  0  0  0  0
  1  2  1  0  0  0  0
  2  3  1  0  0  0  0
  2  9  1  0  0  0  0
  2  8  1  0  0  0  0
  3 11  1  0  0  0  0
  4 16  1  0  0  0  0
  4  3  1  0  0  0  0
  5  4  1  0  0  0  0
  6  5  1  0  0  0  0
  6  1  1  0  0  0  0
  7  1  1  0  0  0  0
 10  3  1  0  0  0  0
 12  5  1  0  0  0  0
 13  5  1  0  0  0  0
 14  6  1  0  0  0  0
 15  6  1  0  0  0  0
 16 22  1  0  0  0  0
 17 18  1  0  0  0  0
 17 16  2  0  0  0  0
 18 19  2  0  0  0  0
 19 20  1  0  0  0  0
 19 21  1  0  0  0  0
 21 25  1  0  0  0  0
 22 21  2  0  0  0  0
 22 26  1  0  0  0  0
 23 17  1  0  0  0  0
 24 18  1  0  0  0  0
 28 27  2  0  0  0  0
 29 28  1  0  0  0  0
 29  1  1  0  0  0  0
 30 29  1  0  0  0  0
 31 32  1  0  0  0  0
 31 28  1  0  0  0  0
 32 37  1  0  0  0  0
 33 38  1  0  0  0  0
 33 32  2  0  0  0  0
 34 33  1  0  0  0  0
 35 34  2  0  0  0  0
 35 36  1  0  0  0  0
 36 31  2  0  0  0  0
 39 35  1  0  0  0  0
 40 36  1  0  0  0  0
M  END
>  <MODEL>
7

>  <REMARK>
 VINA RESULT:    -6.052      5.009      9.711
 INTER + INTRA:          -7.710
 INTER:                  -7.115
 INTRA:                  -0.595
 UNBOUND:                -0.597
  Name = 
  3 active torsions:
  status: ('A' for Active; 'I' for Inactive)
    1  A    between atoms: C_2  and  C_17
    2  A    between atoms: N_3  and  C_4
    3  A    between atoms: N_7  and  C_8
                            x       y       z     vdW  Elec       q    Type
                         _______ _______ _______ _____ _____    ______ ____

>  <TORSDO>
F 3

$$$$
=
 OpenBabel07192307433D

 40 42  0  0  0  0  0  0  0  0999 V2000
    0.7930    8.5020   20.8890 C   0  0  0  0  0  0  0  0  0  0  0  0
   -0.2520    8.3710   22.0120 C   0  0  0  0  0  0  0  0  0  0  0  0
   -0.2760    9.5930   22.9250 C   0  0  0  0  0  0  0  0  0  0  0  0
   -0.2750   10.8140   22.1240 N   0  0  0  0  0  0  0  0  0  0  0  0
    0.8470   10.9960   21.1910 C   0  0  0  0  0  0  0  0  0  0  0  0
    1.6930    9.7290   21.0730 C   0  0  0  0  0  0  0  0  0  0  0  0
    0.2530    8.6180   19.9390 H   0  0  0  0  0  0  0  0  0  0  0  0
   -1.2410    8.2400   21.5530 H   0  0  0  0  0  0  0  0  0  0  0  0
   -0.0820    7.4770   22.6230 H   0  0  0  0  0  0  0  0  0  0  0  0
    0.6190    9.5930   23.5610 H   0  0  0  0  0  0  0  0  0  0  0  0
   -1.1120    9.5330   23.6310 H   0  0  0  0  0  0  0  0  0  0  0  0
    0.4700   11.2440   20.1890 H   0  0  0  0  0  0  0  0  0  0  0  0
    1.4820   11.8240   21.5270 H   0  0  0  0  0  0  0  0  0  0  0  0
    2.3180    9.6050   21.9670 H   0  0  0  0  0  0  0  0  0  0  0  0
    2.3890    9.8350   20.2320 H   0  0  0  0  0  0  0  0  0  0  0  0
   -1.4010   11.6180   21.9820 C   0  0  0  0  0  0  0  0  0  0  0  0
   -1.7270   12.1930   20.7400 C   0  0  0  0  0  0  0  0  0  0  0  0
   -2.8510   13.0130   20.5690 C   0  0  0  0  0  0  0  0  0  0  0  0
   -3.6790   13.2770   21.6510 C   0  0  0  0  0  0  0  0  0  0  0  0
   -5.0600   14.2810   21.4510 Cl  0  0  0  0  0  0  0  0  0  0  0  0
   -3.3910   12.7280   22.8930 C   0  0  0  0  0  0  0  0  0  0  0  0
   -2.2640   11.9110   23.0510 C   0  0  0  0  0  0  0  0  0  0  0  0
   -1.0890   12.0310   19.8750 H   0  0  0  0  0  0  0  0  0  0  0  0
   -3.0610   13.4410   19.5930 H   0  0  0  0  0  0  0  0  0  0  0  0
   -4.0370   12.9220   23.7440 H   0  0  0  0  0  0  0  0  0  0  0  0
   -2.0990   11.4850   24.0360 H   0  0  0  0  0  0  0  0  0  0  0  0
    2.1670    7.6280   18.5710 O   0  0  0  0  0  0  0  0  0  0  0  0
    2.2510    6.9650   19.5980 C   0  0  0  0  0  0  0  0  0  0  0  0
    1.5960    7.2850   20.7710 N   0  0  0  0  0  0  0  0  0  0  0  0
    1.6650    6.6720   21.5690 H   0  0  0  0  0  0  0  0  0  0  0  0
    3.0730    5.7260   19.6110 C   0  0  0  0  0  0  0  0  0  0  0  0
    2.4860    4.5530   20.0860 C   0  0  0  0  0  0  0  0  0  0  0  0
    3.2490    3.4010   20.0940 C   0  0  0  0  0  0  0  0  0  0  0  0
    4.5260    3.3470   19.6600 N   0  0  0  0  0  0  0  0  0  0  0  0
    5.0610    4.4910   19.1850 C   0  0  0  0  0  0  0  0  0  0  0  0
    4.3840    5.6980   19.1370 C   0  0  0  0  0  0  0  0  0  0  0  0
    1.4610    4.5410   20.4430 H   0  0  0  0  0  0  0  0  0  0  0  0
    2.8410    2.4620   20.4590 H   0  0  0  0  0  0  0  0  0  0  0  0
    6.0830    4.4070   18.8240 H   0  0  0  0  0  0  0  0  0  0  0  0
    4.8680    6.5670   18.7100 H   0  0  0  0  0  0  0  0  0  0  0  0
  1  6  1  0  0  0  0
  1  2  1  0  0  0  0
  2  9  1  0  0  0  0
  2  3  1  0  0  0  0
  3 10  1  0  0  0  0
  3 11  1  0  0  0  0
  4  3  1  0  0  0  0
  5 13  1  0  0  0  0
  5  4  1  0  0  0  0
  6  5  1  0  0  0  0
  6 14  1  0  0  0  0
  7  1  1  0  0  0  0
  8  2  1  0  0  0  0
 12  5  1  0  0  0  0
 15  6  1  0  0  0  0
 16  4  1  0  0  0  0
 16 22  1  0  0  0  0
 17 16  2  0  0  0  0
 18 17  1  0  0  0  0
 18 19  2  0  0  0  0
 19 21  1  0  0  0  0
 20 19  1  0  0  0  0
 21 22  2  0  0  0  0
 21 25  1  0  0  0  0
 22 26  1  0  0  0  0
 23 17  1  0  0  0  0
 24 18  1  0  0  0  0
 27 28  2  0  0  0  0
 28 31  1  0  0  0  0
 28 29  1  0  0  0  0
 29  1  1  0  0  0  0
 29 30  1  0  0  0  0
 31 32  1  0  0  0  0
 32 33  2  0  0  0  0
 32 37  1  0  0  0  0
 33 38  1  0  0  0  0
 34 33  1  0  0  0  0
 35 34  2  0  0  0  0
 36 35  1  0  0  0  0
 36 31  2  0  0  0  0
 39 35  1  0  0  0  0
 40 36  1  0  0  0  0
M  END
>  <MODEL>
8

>  <REMARK>
 VINA RESULT:    -5.996      4.921      9.804
 INTER + INTRA:          -7.644
 INTER:                  -7.129
 INTRA:                  -0.515
 UNBOUND:                -0.597
  Name = 
  3 active torsions:
  status: ('A' for Active; 'I' for Inactive)
    1  A    between atoms: C_2  and  C_17
    2  A    between atoms: N_3  and  C_4
    3  A    between atoms: N_7  and  C_8
                            x       y       z     vdW  Elec       q    Type
                         _______ _______ _______ _____ _____    ______ ____

>  <TORSDO>
F 3

$$$$
=
 OpenBabel07192307433D

 40 42  0  0  0  0  0  0  0  0999 V2000
    0.0220    9.6110   20.9870 C   0  0  0  0  0  0  0  0  0  0  0  0
    0.3340    9.4860   19.4850 C   0  0  0  0  0  0  0  0  0  0  0  0
    1.7330    8.9340   19.2280 C   0  0  0  0  0  0  0  0  0  0  0  0
    1.9730    7.7730   20.0800 N   0  0  0  0  0  0  0  0  0  0  0  0
    1.8500    7.9770   21.5320 C   0  0  0  0  0  0  0  0  0  0  0  0
    1.2530    9.3440   21.8600 C   0  0  0  0  0  0  0  0  0  0  0  0
   -0.7390    8.8590   21.2360 H   0  0  0  0  0  0  0  0  0  0  0  0
   -0.4100    8.8200   19.0290 H   0  0  0  0  0  0  0  0  0  0  0  0
    0.2340   10.4480   18.9680 H   0  0  0  0  0  0  0  0  0  0  0  0
    2.4800    9.7020   19.4670 H   0  0  0  0  0  0  0  0  0  0  0  0
    1.8800    8.7320   18.1620 H   0  0  0  0  0  0  0  0  0  0  0  0
    1.1960    7.2100   21.9680 H   0  0  0  0  0  0  0  0  0  0  0  0
    2.8350    7.8900   22.0060 H   0  0  0  0  0  0  0  0  0  0  0  0
    2.0010   10.1320   21.7060 H   0  0  0  0  0  0  0  0  0  0  0  0
    0.9940    9.3800   22.9250 H   0  0  0  0  0  0  0  0  0  0  0  0
    1.9980    6.4730   19.5870 C   0  0  0  0  0  0  0  0  0  0  0  0
    1.6320    5.3840   20.3990 C   0  0  0  0  0  0  0  0  0  0  0  0
    1.6540    4.0630   19.9310 C   0  0  0  0  0  0  0  0  0  0  0  0
    2.0480    3.8030   18.6260 C   0  0  0  0  0  0  0  0  0  0  0  0
    2.0780    2.1870   18.0420 Cl  0  0  0  0  0  0  0  0  0  0  0  0
    2.4180    4.8510   17.7930 C   0  0  0  0  0  0  0  0  0  0  0  0
    2.3930    6.1670   18.2740 C   0  0  0  0  0  0  0  0  0  0  0  0
    1.3410    5.5430   21.4340 H   0  0  0  0  0  0  0  0  0  0  0  0
    1.3680    3.2520   20.5950 H   0  0  0  0  0  0  0  0  0  0  0  0
    2.7210    4.6590   16.7680 H   0  0  0  0  0  0  0  0  0  0  0  0
    2.6640    6.9520   17.5750 H   0  0  0  0  0  0  0  0  0  0  0  0
   -1.2620   10.3330   23.4070 O   0  0  0  0  0  0  0  0  0  0  0  0
   -1.1390   11.1740   22.5250 C   0  0  0  0  0  0  0  0  0  0  0  0
   -0.5590   10.9170   21.2990 N   0  0  0  0  0  0  0  0  0  0  0  0
   -0.5310   11.6400   20.5940 H   0  0  0  0  0  0  0  0  0  0  0  0
   -1.6560   12.5510   22.7420 C   0  0  0  0  0  0  0  0  0  0  0  0
   -3.0080   12.7040   23.0510 C   0  0  0  0  0  0  0  0  0  0  0  0
   -3.4870   13.9840   23.2570 C   0  0  0  0  0  0  0  0  0  0  0  0
   -2.7170   15.0910   23.1840 N   0  0  0  0  0  0  0  0  0  0  0  0
   -1.4090   14.9110   22.9060 C   0  0  0  0  0  0  0  0  0  0  0  0
   -0.8310   13.6740   22.6800 C   0  0  0  0  0  0  0  0  0  0  0  0
   -3.6690   11.8470   23.1260 H   0  0  0  0  0  0  0  0  0  0  0  0
   -4.5330   14.1590   23.4950 H   0  0  0  0  0  0  0  0  0  0  0  0
   -0.8150   15.8220   22.8750 H   0  0  0  0  0  0  0  0  0  0  0  0
    0.2330   13.6060   22.4950 H   0  0  0  0  0  0  0  0  0  0  0  0
  1  7  1  0  0  0  0
  1 29  1  0  0  0  0
  1  6  1  0  0  0  0
  2  1  1  0  0  0  0
  3 10  1  0  0  0  0
  3  2  1  0  0  0  0
  3  4  1  0  0  0  0
  4  5  1  0  0  0  0
  5  6  1  0  0  0  0
  5 12  1  0  0  0  0
  5 13  1  0  0  0  0
  6 15  1  0  0  0  0
  8  2  1  0  0  0  0
  9  2  1  0  0  0  0
 11  3  1  0  0  0  0
 14  6  1  0  0  0  0
 16  4  1  0  0  0  0
 16 17  1  0  0  0  0
 17 23  1  0  0  0  0
 18 17  2  0  0  0  0
 18 24  1  0  0  0  0
 19 18  1  0  0  0  0
 20 19  1  0  0  0  0
 21 22  1  0  0  0  0
 21 19  2  0  0  0  0
 22 16  2  0  0  0  0
 25 21  1  0  0  0  0
 26 22  1  0  0  0  0
 28 31  1  0  0  0  0
 28 27  2  0  0  0  0
 29 28  1  0  0  0  0
 30 29  1  0  0  0  0
 31 32  1  0  0  0  0
 32 37  1  0  0  0  0
 32 33  2  0  0  0  0
 33 38  1  0  0  0  0
 34 33  1  0  0  0  0
 35 34  2  0  0  0  0
 36 31  2  0  0  0  0
 36 35  1  0  0  0  0
 39 35  1  0  0  0  0
 40 36  1  0  0  0  0
M  END
>  <MODEL>
9

>  <REMARK>
 VINA RESULT:    -5.874      3.764      5.759
 INTER + INTRA:          -7.502
 INTER:                  -7.117
 INTRA:                  -0.385
 UNBOUND:                -0.597
  Name = 
  3 active torsions:
  status: ('A' for Active; 'I' for Inactive)
    1  A    between atoms: C_2  and  C_17
    2  A    between atoms: N_3  and  C_4
    3  A    between atoms: N_7  and  C_8
                            x       y       z     vdW  Elec       q    Type
                         _______ _______ _______ _____ _____    ______ ____

>  <TORSDO>
F 3

$$$$
=
 OpenBabel07192307433D

 40 42  0  0  0  0  0  0  0  0999 V2000
   -0.0160    9.6070   20.9870 C   0  0  0  0  0  0  0  0  0  0  0  0
    0.2710    9.4560   19.4830 C   0  0  0  0  0  0  0  0  0  0  0  0
    1.6710    8.9140   19.2120 C   0  0  0  0  0  0  0  0  0  0  0  0
    1.9400    7.7730   20.0820 N   0  0  0  0  0  0  0  0  0  0  0  0
    1.8400    8.0030   21.5320 C   0  0  0  0  0  0  0  0  0  0  0  0
    1.2330    9.3700   21.8440 C   0  0  0  0  0  0  0  0  0  0  0  0
   -0.7640    8.8510   21.2640 H   0  0  0  0  0  0  0  0  0  0  0  0
   -0.4730    8.7730   19.0540 H   0  0  0  0  0  0  0  0  0  0  0  0
    0.1520   10.4060   18.9490 H   0  0  0  0  0  0  0  0  0  0  0  0
    2.4140    9.6950   19.4230 H   0  0  0  0  0  0  0  0  0  0  0  0
    1.8020    8.6930   18.1480 H   0  0  0  0  0  0  0  0  0  0  0  0
    1.2030    7.2380   21.9940 H   0  0  0  0  0  0  0  0  0  0  0  0
    2.8340    7.9370   21.9900 H   0  0  0  0  0  0  0  0  0  0  0  0
    1.9690   10.1640   21.6610 H   0  0  0  0  0  0  0  0  0  0  0  0
    0.9920    9.4240   22.9130 H   0  0  0  0  0  0  0  0  0  0  0  0
    1.9720    6.4640   19.6140 C   0  0  0  0  0  0  0  0  0  0  0  0
    2.3800    6.1760   18.2980 C   0  0  0  0  0  0  0  0  0  0  0  0
    2.4150    4.8670   17.7980 C   0  0  0  0  0  0  0  0  0  0  0  0
    2.0370    3.8090   18.6130 C   0  0  0  0  0  0  0  0  0  0  0  0
    2.0770    2.2010   18.0080 Cl  0  0  0  0  0  0  0  0  0  0  0  0
    1.6280    4.0530   19.9170 C   0  0  0  0  0  0  0  0  0  0  0  0
    1.5950    5.3660   20.4050 C   0  0  0  0  0  0  0  0  0  0  0  0
    2.6600    6.9780   17.6220 H   0  0  0  0  0  0  0  0  0  0  0  0
    2.7320    4.6920   16.7740 H   0  0  0  0  0  0  0  0  0  0  0  0
    1.3370    3.2310   20.5650 H   0  0  0  0  0  0  0  0  0  0  0  0
    1.2940    5.4990   21.4390 H   0  0  0  0  0  0  0  0  0  0  0  0
   -1.2750   10.3580   23.4110 O   0  0  0  0  0  0  0  0  0  0  0  0
   -1.1720   11.1850   22.5140 C   0  0  0  0  0  0  0  0  0  0  0  0
   -0.6060   10.9120   21.2840 N   0  0  0  0  0  0  0  0  0  0  0  0
   -0.5960   11.6220   20.5660 H   0  0  0  0  0  0  0  0  0  0  0  0
   -1.7010   12.5600   22.7130 C   0  0  0  0  0  0  0  0  0  0  0  0
   -3.0440   12.7040   23.0620 C   0  0  0  0  0  0  0  0  0  0  0  0
   -3.5330   13.9820   23.2520 C   0  0  0  0  0  0  0  0  0  0  0  0
   -2.7820   15.0960   23.1260 N   0  0  0  0  0  0  0  0  0  0  0  0
   -1.4800   14.9270   22.8110 C   0  0  0  0  0  0  0  0  0  0  0  0
   -0.8930   13.6920   22.5970 C   0  0  0  0  0  0  0  0  0  0  0  0
   -3.6910   11.8410   23.1790 H   0  0  0  0  0  0  0  0  0  0  0  0
   -4.5730   14.1500   23.5190 H   0  0  0  0  0  0  0  0  0  0  0  0
   -0.9000   15.8440   22.7390 H   0  0  0  0  0  0  0  0  0  0  0  0
    0.1650   13.6320   22.3800 H   0  0  0  0  0  0  0  0  0  0  0  0
  1  7  1  0  0  0  0
  1 29  1  0  0  0  0
  1  6  1  0  0  0  0
  2  1  1  0  0  0  0
  3 10  1  0  0  0  0
  3  2  1  0  0  0  0
  3  4  1  0  0  0  0
  4  5  1  0  0  0  0
  5  6  1  0  0  0  0
  5 13  1  0  0  0  0
  5 12  1  0  0  0  0
  6 15  1  0  0  0  0
  8  2  1  0  0  0  0
  9  2  1  0  0  0  0
 11  3  1  0  0  0  0
 14  6  1  0  0  0  0
 16  4  1  0  0  0  0
 16 22  1  0  0  0  0
 17 16  2  0  0  0  0
 18 17  1  0  0  0  0
 18 19  2  0  0  0  0
 19 21  1  0  0  0  0
 20 19  1  0  0  0  0
 21 22  2  0  0  0  0
 21 25  1  0  0  0  0
 22 26  1  0  0  0  0
 23 17  1  0  0  0  0
 24 18  1  0  0  0  0
 28 31  1  0  0  0  0
 28 27  2  0  0  0  0
 29 28  1  0  0  0  0
 30 29  1  0  0  0  0
 31 32  1  0  0  0  0
 32 37  1  0  0  0  0
 32 33  2  0  0  0  0
 33 38  1  0  0  0  0
 34 33  1  0  0  0  0
 35 34  2  0  0  0  0
 36 31  2  0  0  0  0
 36 35  1  0  0  0  0
 39 35  1  0  0  0  0
 40 36  1  0  0  0  0
M  END
>  <MODEL>
10

>  <REMARK>
 VINA RESULT:    -5.845      3.767      5.761
 INTER + INTRA:          -7.467
 INTER:                  -7.080
 INTRA:                  -0.388
 UNBOUND:                -0.597
  Name = 
  3 active torsions:
  status: ('A' for Active; 'I' for Inactive)
    1  A    between atoms: C_2  and  C_17
    2  A    between atoms: N_3  and  C_4
    3  A    between atoms: N_7  and  C_8
                            x       y       z     vdW  Elec       q    Type
                         _______ _______ _______ _____ _____    ______ ____

>  <TORSDO>
F 3

$$$$
=
 OpenBabel07192307433D

 40 42  0  0  0  0  0  0  0  0999 V2000
    0.5910    9.8030   19.7240 C   0  0  0  0  0  0  0  0  0  0  0  0
    1.4120   10.8330   20.5200 C   0  0  0  0  0  0  0  0  0  0  0  0
    0.8710   12.2500   20.3640 C   0  0  0  0  0  0  0  0  0  0  0  0
   -0.5800   12.2500   20.5310 N   0  0  0  0  0  0  0  0  0  0  0  0
   -1.3540   11.3900   19.6210 C   0  0  0  0  0  0  0  0  0  0  0  0
   -0.4450   10.4660   18.8110 C   0  0  0  0  0  0  0  0  0  0  0  0
    0.0520    9.1730   20.4460 H   0  0  0  0  0  0  0  0  0  0  0  0
    1.3920   10.5490   21.5810 H   0  0  0  0  0  0  0  0  0  0  0  0
    2.4690   10.8240   20.2260 H   0  0  0  0  0  0  0  0  0  0  0  0
    1.1060   12.6240   19.3590 H   0  0  0  0  0  0  0  0  0  0  0  0
    1.3880   12.9390   21.0400 H   0  0  0  0  0  0  0  0  0  0  0  0
   -2.0490   10.7620   20.1930 H   0  0  0  0  0  0  0  0  0  0  0  0
   -1.9430   12.0090   18.9350 H   0  0  0  0  0  0  0  0  0  0  0  0
    0.0610   11.0310   18.0170 H   0  0  0  0  0  0  0  0  0  0  0  0
   -1.0580    9.7140   18.3000 H   0  0  0  0  0  0  0  0  0  0  0  0
   -1.2050   12.7560   21.6650 C   0  0  0  0  0  0  0  0  0  0  0  0
   -0.6160   13.7930   22.4130 C   0  0  0  0  0  0  0  0  0  0  0  0
   -1.2200   14.3190   23.5630 C   0  0  0  0  0  0  0  0  0  0  0  0
   -2.4370   13.8110   23.9930 C   0  0  0  0  0  0  0  0  0  0  0  0
   -3.1860   14.4490   25.4030 Cl  0  0  0  0  0  0  0  0  0  0  0  0
   -3.0500   12.7880   23.2830 C   0  0  0  0  0  0  0  0  0  0  0  0
   -2.4360   12.2700   22.1350 C   0  0  0  0  0  0  0  0  0  0  0  0
    0.3490   14.2010   22.1230 H   0  0  0  0  0  0  0  0  0  0  0  0
   -0.7260   15.1150   24.1130 H   0  0  0  0  0  0  0  0  0  0  0  0
   -4.0070   12.3880   23.6060 H   0  0  0  0  0  0  0  0  0  0  0  0
   -2.9690   11.4900   21.6000 H   0  0  0  0  0  0  0  0  0  0  0  0
    1.6780    7.3470   20.6240 O   0  0  0  0  0  0  0  0  0  0  0  0
    1.9150    7.7180   19.4810 C   0  0  0  0  0  0  0  0  0  0  0  0
    1.4610    8.9120   18.9570 N   0  0  0  0  0  0  0  0  0  0  0  0
    1.7320    9.1870   18.0230 H   0  0  0  0  0  0  0  0  0  0  0  0
    2.7570    6.8760   18.5910 C   0  0  0  0  0  0  0  0  0  0  0  0
    2.5430    5.4980   18.5960 C   0  0  0  0  0  0  0  0  0  0  0  0
    3.3240    4.7160   17.7660 C   0  0  0  0  0  0  0  0  0  0  0  0
    4.2740    5.2140   16.9460 N   0  0  0  0  0  0  0  0  0  0  0  0
    4.4430    6.5530   16.9450 C   0  0  0  0  0  0  0  0  0  0  0  0
    3.7170    7.4230   17.7400 C   0  0  0  0  0  0  0  0  0  0  0  0
    1.7900    5.0460   19.2330 H   0  0  0  0  0  0  0  0  0  0  0  0
    3.2020    3.6360   17.7350 H   0  0  0  0  0  0  0  0  0  0  0  0
    5.2010    6.9210   16.2580 H   0  0  0  0  0  0  0  0  0  0  0  0
    3.8860    8.4890   17.6610 H   0  0  0  0  0  0  0  0  0  0  0  0
  1  7  1  0  0  0  0
  1  2  1  0  0  0  0
  2  8  1  0  0  0  0
  3  2  1  0  0  0  0
  3  4  1  0  0  0  0
  3 11  1  0  0  0  0
  4 16  1  0  0  0  0
  5 12  1  0  0  0  0
  5  4  1  0  0  0  0
  6  5  1  0  0  0  0
  6  1  1  0  0  0  0
  9  2  1  0  0  0  0
 10  3  1  0  0  0  0
 13  5  1  0  0  0  0
 14  6  1  0  0  0  0
 15  6  1  0  0  0  0
 16 22  2  0  0  0  0
 16 17  1  0  0  0  0
 17 18  2  0  0  0  0
 18 19  1  0  0  0  0
 18 24  1  0  0  0  0
 19 20  1  0  0  0  0
 21 25  1  0  0  0  0
 21 19  2  0  0  0  0
 22 21  1  0  0  0  0
 23 17  1  0  0  0  0
 26 22  1  0  0  0  0
 28 27  2  0  0  0  0
 29 28  1  0  0  0  0
 29  1  1  0  0  0  0
 30 29  1  0  0  0  0
 31 32  1  0  0  0  0
 31 28  1  0  0  0  0
 32 37  1  0  0  0  0
 33 32  2  0  0  0  0
 34 33  1  0  0  0  0
 35 34  2  0  0  0  0
 35 36  1  0  0  0  0
 36 31  2  0  0  0  0
 38 33  1  0  0  0  0
 39 35  1  0  0  0  0
 40 36  1  0  0  0  0
M  END
>  <MODEL>
11

>  <REMARK>
 VINA RESULT:    -5.703      4.931     10.152
 INTER + INTRA:          -7.301
 INTER:                  -6.716
 INTRA:                  -0.584
 UNBOUND:                -0.597
  Name = 
  3 active torsions:
  status: ('A' for Active; 'I' for Inactive)
    1  A    between atoms: C_2  and  C_17
    2  A    between atoms: N_3  and  C_4
    3  A    between atoms: N_7  and  C_8
                            x       y       z     vdW  Elec       q    Type
                         _______ _______ _______ _____ _____    ______ ____

>  <TORSDO>
F 3

$$$$
=
 OpenBabel07192307433D

 40 42  0  0  0  0  0  0  0  0999 V2000
    2.8270    8.2330   18.4980 C   0  0  0  0  0  0  0  0  0  0  0  0
    1.9990    9.3000   17.7590 C   0  0  0  0  0  0  0  0  0  0  0  0
    0.5820    9.4170   18.3120 C   0  0  0  0  0  0  0  0  0  0  0  0
    0.6190    9.4620   19.7710 N   0  0  0  0  0  0  0  0  0  0  0  0
    1.2560    8.3260   20.4550 C   0  0  0  0  0  0  0  0  0  0  0  0
    1.9780    7.4080   19.4700 C   0  0  0  0  0  0  0  0  0  0  0  0
    3.6010    8.7520   19.0800 H   0  0  0  0  0  0  0  0  0  0  0  0
    2.5100   10.2660   17.8580 H   0  0  0  0  0  0  0  0  0  0  0  0
    1.9430    9.0970   16.6830 H   0  0  0  0  0  0  0  0  0  0  0  0
   -0.0040    8.5410   18.0050 H   0  0  0  0  0  0  0  0  0  0  0  0
    0.0600   10.2670   17.8610 H   0  0  0  0  0  0  0  0  0  0  0  0
    1.9950    8.6880   21.1820 H   0  0  0  0  0  0  0  0  0  0  0  0
    0.5010    7.7480   21.0000 H   0  0  0  0  0  0  0  0  0  0  0  0
    1.2510    6.8020   18.9140 H   0  0  0  0  0  0  0  0  0  0  0  0
    2.5990    6.6960   20.0270 H   0  0  0  0  0  0  0  0  0  0  0  0
    0.3760   10.6260   20.4910 C   0  0  0  0  0  0  0  0  0  0  0  0
   -0.4140   10.6040   21.6560 C   0  0  0  0  0  0  0  0  0  0  0  0
   -0.6810   11.7620   22.3980 C   0  0  0  0  0  0  0  0  0  0  0  0
   -0.1580   12.9790   21.9850 C   0  0  0  0  0  0  0  0  0  0  0  0
   -0.4800   14.4060   22.8880 Cl  0  0  0  0  0  0  0  0  0  0  0  0
    0.6260   13.0430   20.8410 C   0  0  0  0  0  0  0  0  0  0  0  0
    0.8840   11.8780   20.1060 C   0  0  0  0  0  0  0  0  0  0  0  0
   -0.8630    9.6750   21.9980 H   0  0  0  0  0  0  0  0  0  0  0  0
   -1.3020   11.7000   23.2880 H   0  0  0  0  0  0  0  0  0  0  0  0
    1.0460   13.9890   20.5120 H   0  0  0  0  0  0  0  0  0  0  0  0
    1.5260   11.9760   19.2360 H   0  0  0  0  0  0  0  0  0  0  0  0
    4.2980    5.9020   19.1530 O   0  0  0  0  0  0  0  0  0  0  0  0
    4.1930    6.2270   17.9770 C   0  0  0  0  0  0  0  0  0  0  0  0
    3.5260    7.3600   17.5540 N   0  0  0  0  0  0  0  0  0  0  0  0
    3.5170    7.6020   16.5740 H   0  0  0  0  0  0  0  0  0  0  0  0
    4.8280    5.3940   16.9220 C   0  0  0  0  0  0  0  0  0  0  0  0
    5.2980    6.0340   15.7750 C   0  0  0  0  0  0  0  0  0  0  0  0
    5.8930    5.2610   14.7960 C   0  0  0  0  0  0  0  0  0  0  0  0
    6.0490    3.9230   14.8930 N   0  0  0  0  0  0  0  0  0  0  0  0
    5.6060    3.3340   16.0240 C   0  0  0  0  0  0  0  0  0  0  0  0
    4.9940    4.0170   17.0600 C   0  0  0  0  0  0  0  0  0  0  0  0
    5.2010    7.1070   15.6480 H   0  0  0  0  0  0  0  0  0  0  0  0
    6.2710    5.7080   13.8810 H   0  0  0  0  0  0  0  0  0  0  0  0
    5.7670    2.2600   16.0770 H   0  0  0  0  0  0  0  0  0  0  0  0
    4.6940    3.4810   17.9510 H   0  0  0  0  0  0  0  0  0  0  0  0
  1  7  1  0  0  0  0
  1  6  1  0  0  0  0
  2  8  1  0  0  0  0
  2  3  1  0  0  0  0
  2  1  1  0  0  0  0
  3  4  1  0  0  0  0
  4  5  1  0  0  0  0
  4 16  1  0  0  0  0
  5 13  1  0  0  0  0
  5 12  1  0  0  0  0
  6 15  1  0  0  0  0
  6  5  1  0  0  0  0
  9  2  1  0  0  0  0
 10  3  1  0  0  0  0
 11  3  1  0  0  0  0
 14  6  1  0  0  0  0
 16 17  1  0  0  0  0
 17 23  1  0  0  0  0
 17 18  2  0  0  0  0
 18 24  1  0  0  0  0
 19 18  1  0  0  0  0
 19 20  1  0  0  0  0
 21 19  2  0  0  0  0
 22 16  2  0  0  0  0
 22 21  1  0  0  0  0
 25 21  1  0  0  0  0
 26 22  1  0  0  0  0
 28 27  2  0  0  0  0
 29 28  1  0  0  0  0
 29  1  1  0  0  0  0
 30 29  1  0  0  0  0
 31 36  1  0  0  0  0
 31 28  1  0  0  0  0
 32 31  2  0  0  0  0
 33 34  2  0  0  0  0
 33 32  1  0  0  0  0
 34 35  1  0  0  0  0
 35 39  1  0  0  0  0
 35 36  2  0  0  0  0
 36 40  1  0  0  0  0
 37 32  1  0  0  0  0
 38 33  1  0  0  0  0
M  END
>  <MODEL>
12

>  <REMARK>
 VINA RESULT:    -5.484      4.083      9.134
 INTER + INTRA:          -7.043
 INTER:                  -7.025
 INTRA:                  -0.018
 UNBOUND:                -0.597
  Name = 
  3 active torsions:
  status: ('A' for Active; 'I' for Inactive)
    1  A    between atoms: C_2  and  C_17
    2  A    between atoms: N_3  and  C_4
    3  A    between atoms: N_7  and  C_8
                            x       y       z     vdW  Elec       q    Type
                         _______ _______ _______ _____ _____    ______ ____

>  <TORSDO>
F 3

$$$$
=
 OpenBabel07192307433D

 40 42  0  0  0  0  0  0  0  0999 V2000
    1.5440    6.8840   19.6120 C   0  0  0  0  0  0  0  0  0  0  0  0
    1.1920    7.4200   21.0110 C   0  0  0  0  0  0  0  0  0  0  0  0
    1.5340    8.8980   21.1680 C   0  0  0  0  0  0  0  0  0  0  0  0
    1.0610    9.6450   20.0060 N   0  0  0  0  0  0  0  0  0  0  0  0
    1.5690    9.2220   18.6910 C   0  0  0  0  0  0  0  0  0  0  0  0
    2.3330    7.9020   18.7810 C   0  0  0  0  0  0  0  0  0  0  0  0
    0.6020    6.6760   19.0850 H   0  0  0  0  0  0  0  0  0  0  0  0
    0.1170    7.2750   21.1790 H   0  0  0  0  0  0  0  0  0  0  0  0
    1.6990    6.8550   21.8020 H   0  0  0  0  0  0  0  0  0  0  0  0
    2.6240    9.0160   21.2380 H   0  0  0  0  0  0  0  0  0  0  0  0
    1.1560    9.2850   22.1200 H   0  0  0  0  0  0  0  0  0  0  0  0
    0.7360    9.0810   17.9900 H   0  0  0  0  0  0  0  0  0  0  0  0
    2.2300    9.9940   18.2800 H   0  0  0  0  0  0  0  0  0  0  0  0
    3.3220    8.0650   19.2290 H   0  0  0  0  0  0  0  0  0  0  0  0
    2.5210    7.5220   17.7700 H   0  0  0  0  0  0  0  0  0  0  0  0
   -0.0410   10.4900   20.0560 C   0  0  0  0  0  0  0  0  0  0  0  0
   -0.4030   11.1380   21.2520 C   0  0  0  0  0  0  0  0  0  0  0  0
   -1.5120   11.9900   21.3330 C   0  0  0  0  0  0  0  0  0  0  0  0
   -2.2920   12.2130   20.2070 C   0  0  0  0  0  0  0  0  0  0  0  0
   -3.6550   13.2570   20.2970 Cl  0  0  0  0  0  0  0  0  0  0  0  0
   -1.9680   11.5920   19.0080 C   0  0  0  0  0  0  0  0  0  0  0  0
   -0.8570   10.7410   18.9400 C   0  0  0  0  0  0  0  0  0  0  0  0
    0.1680   10.9700   22.1620 H   0  0  0  0  0  0  0  0  0  0  0  0
   -1.7580   12.4650   22.2790 H   0  0  0  0  0  0  0  0  0  0  0  0
   -2.5670   11.7650   18.1190 H   0  0  0  0  0  0  0  0  0  0  0  0
   -0.6310   10.3020   17.9730 H   0  0  0  0  0  0  0  0  0  0  0  0
    1.4200    4.7610   17.7410 O   0  0  0  0  0  0  0  0  0  0  0  0
    2.1580    4.6540   18.7130 C   0  0  0  0  0  0  0  0  0  0  0  0
    2.2670    5.6150   19.6980 N   0  0  0  0  0  0  0  0  0  0  0  0
    2.8550    5.4480   20.5020 H   0  0  0  0  0  0  0  0  0  0  0  0
    2.9740    3.4240   18.8890 C   0  0  0  0  0  0  0  0  0  0  0  0
    3.7680    3.3200   20.0310 C   0  0  0  0  0  0  0  0  0  0  0  0
    4.5230    2.1750   20.1960 C   0  0  0  0  0  0  0  0  0  0  0  0
    4.5280    1.1500   19.3170 N   0  0  0  0  0  0  0  0  0  0  0  0
    3.7340    1.2680   18.2320 C   0  0  0  0  0  0  0  0  0  0  0  0
    2.9420    2.3730   17.9720 C   0  0  0  0  0  0  0  0  0  0  0  0
    3.7970    4.1130   20.7710 H   0  0  0  0  0  0  0  0  0  0  0  0
    5.1630    2.0450   21.0650 H   0  0  0  0  0  0  0  0  0  0  0  0
    3.7470    0.4160   17.5570 H   0  0  0  0  0  0  0  0  0  0  0  0
    2.3050    2.3820   17.0980 H   0  0  0  0  0  0  0  0  0  0  0  0
  1 29  1  0  0  0  0
  1  2  1  0  0  0  0
  2  3  1  0  0  0  0
  2  8  1  0  0  0  0
  2  9  1  0  0  0  0
  3 10  1  0  0  0  0
  3 11  1  0  0  0  0
  4 16  1  0  0  0  0
  4  3  1  0  0  0  0
  5  6  1  0  0  0  0
  5  4  1  0  0  0  0
  6 14  1  0  0  0  0
  6  1  1  0  0  0  0
  7  1  1  0  0  0  0
 12  5  1  0  0  0  0
 13  5  1  0  0  0  0
 15  6  1  0  0  0  0
 16 17  1  0  0  0  0
 17 18  2  0  0  0  0
 17 23  1  0  0  0  0
 18 24  1  0  0  0  0
 19 20  1  0  0  0  0
 19 18  1  0  0  0  0
 21 19  2  0  0  0  0
 22 21  1  0  0  0  0
 22 16  2  0  0  0  0
 25 21  1  0  0  0  0
 26 22  1  0  0  0  0
 27 28  2  0  0  0  0
 28 31  1  0  0  0  0
 28 29  1  0  0  0  0
 29 30  1  0  0  0  0
 31 32  1  0  0  0  0
 32 33  2  0  0  0  0
 32 37  1  0  0  0  0
 33 38  1  0  0  0  0
 34 33  1  0  0  0  0
 35 34  2  0  0  0  0
 36 35  1  0  0  0  0
 36 31  2  0  0  0  0
 39 35  1  0  0  0  0
 40 36  1  0  0  0  0
M  END
>  <MODEL>
13

>  <REMARK>
 VINA RESULT:    -5.464      4.836      8.848
 INTER + INTRA:          -7.020
 INTER:                  -6.419
 INTRA:                  -0.600
 UNBOUND:                -0.597
  Name = 
  3 active torsions:
  status: ('A' for Active; 'I' for Inactive)
    1  A    between atoms: C_2  and  C_17
    2  A    between atoms: N_3  and  C_4
    3  A    between atoms: N_7  and  C_8
                            x       y       z     vdW  Elec       q    Type
                         _______ _______ _______ _____ _____    ______ ____

>  <TORSDO>
F 3

$$$$
=
 OpenBabel07192307433D

 40 42  0  0  0  0  0  0  0  0999 V2000
   -0.0630    9.6610   20.5140 C   0  0  0  0  0  0  0  0  0  0  0  0
    0.5790    9.5450   19.1200 C   0  0  0  0  0  0  0  0  0  0  0  0
    1.9780    8.9380   19.1750 C   0  0  0  0  0  0  0  0  0  0  0  0
    1.9740    7.7560   20.0320 N   0  0  0  0  0  0  0  0  0  0  0  0
    1.5310    7.9440   21.4220 C   0  0  0  0  0  0  0  0  0  0  0  0
    0.9250    9.3300   21.6380 C   0  0  0  0  0  0  0  0  0  0  0  0
   -0.8880    8.9370   20.5650 H   0  0  0  0  0  0  0  0  0  0  0  0
   -0.0660    8.9160   18.4910 H   0  0  0  0  0  0  0  0  0  0  0  0
    0.6360   10.5170   18.6160 H   0  0  0  0  0  0  0  0  0  0  0  0
    2.6780    9.6720   19.5960 H   0  0  0  0  0  0  0  0  0  0  0  0
    2.3570    8.7460   18.1660 H   0  0  0  0  0  0  0  0  0  0  0  0
    0.7660    7.1980   21.6800 H   0  0  0  0  0  0  0  0  0  0  0  0
    2.3770    7.8100   22.1060 H   0  0  0  0  0  0  0  0  0  0  0  0
    1.7170   10.0890   21.6770 H   0  0  0  0  0  0  0  0  0  0  0  0
    0.4310    9.3610   22.6170 H   0  0  0  0  0  0  0  0  0  0  0  0
    2.0630    6.4640   19.5270 C   0  0  0  0  0  0  0  0  0  0  0  0
    1.7040    5.3530   20.3140 C   0  0  0  0  0  0  0  0  0  0  0  0
    1.7900    4.0400   19.8330 C   0  0  0  0  0  0  0  0  0  0  0  0
    2.2420    3.8090   18.5420 C   0  0  0  0  0  0  0  0  0  0  0  0
    2.3510    2.2010   17.9430 Cl  0  0  0  0  0  0  0  0  0  0  0  0
    2.6060    4.8780   17.7340 C   0  0  0  0  0  0  0  0  0  0  0  0
    2.5180    6.1870   18.2270 C   0  0  0  0  0  0  0  0  0  0  0  0
    1.3690    5.4910   21.3380 H   0  0  0  0  0  0  0  0  0  0  0  0
    1.5080    3.2120   20.4780 H   0  0  0  0  0  0  0  0  0  0  0  0
    2.9550    4.7080   16.7200 H   0  0  0  0  0  0  0  0  0  0  0  0
    2.7880    6.9880   17.5470 H   0  0  0  0  0  0  0  0  0  0  0  0
   -2.0970   10.8430   18.9360 O   0  0  0  0  0  0  0  0  0  0  0  0
   -1.6630   11.4560   19.9030 C   0  0  0  0  0  0  0  0  0  0  0  0
   -0.6510   10.9850   20.7160 N   0  0  0  0  0  0  0  0  0  0  0  0
   -0.3010   11.5590   21.4690 H   0  0  0  0  0  0  0  0  0  0  0  0
   -2.2120   12.7980   20.2330 C   0  0  0  0  0  0  0  0  0  0  0  0
   -3.5800   12.9030   20.4870 C   0  0  0  0  0  0  0  0  0  0  0  0
   -4.0890   14.1500   20.7980 C   0  0  0  0  0  0  0  0  0  0  0  0
   -3.3350   15.2670   20.8760 N   0  0  0  0  0  0  0  0  0  0  0  0
   -2.0110   15.1320   20.6480 C   0  0  0  0  0  0  0  0  0  0  0  0
   -1.4030   13.9310   20.3270 C   0  0  0  0  0  0  0  0  0  0  0  0
   -4.2300   12.0360   20.4410 H   0  0  0  0  0  0  0  0  0  0  0  0
   -5.1480   14.2880   20.9990 H   0  0  0  0  0  0  0  0  0  0  0  0
   -1.4320   16.0470   20.7400 H   0  0  0  0  0  0  0  0  0  0  0  0
   -0.3300   13.8930   20.1900 H   0  0  0  0  0  0  0  0  0  0  0  0
  1  7  1  0  0  0  0
  1 29  1  0  0  0  0
  1  6  1  0  0  0  0
  2  3  1  0  0  0  0
  2  1  1  0  0  0  0
  3 10  1  0  0  0  0
  3  4  1  0  0  0  0
  4  5  1  0  0  0  0
  5  6  1  0  0  0  0
  5 12  1  0  0  0  0
  5 13  1  0  0  0  0
  6 14  1  0  0  0  0
  6 15  1  0  0  0  0
  8  2  1  0  0  0  0
  9  2  1  0  0  0  0
 11  3  1  0  0  0  0
 16  4  1  0  0  0  0
 16 17  1  0  0  0  0
 17 23  1  0  0  0  0
 18 17  2  0  0  0  0
 18 24  1  0  0  0  0
 19 18  1  0  0  0  0
 20 19  1  0  0  0  0
 21 22  1  0  0  0  0
 21 19  2  0  0  0  0
 22 16  2  0  0  0  0
 25 21  1  0  0  0  0
 26 22  1  0  0  0  0
 27 28  2  0  0  0  0
 28 31  1  0  0  0  0
 28 29  1  0  0  0  0
 29 30  1  0  0  0  0
 31 36  2  0  0  0  0
 31 32  1  0  0  0  0
 32 33  2  0  0  0  0
 33 34  1  0  0  0  0
 33 38  1  0  0  0  0
 35 39  1  0  0  0  0
 35 34  2  0  0  0  0
 36 35  1  0  0  0  0
 37 32  1  0  0  0  0
 40 36  1  0  0  0  0
M  END
>  <MODEL>
14

>  <REMARK>
 VINA RESULT:    -5.421      3.540      5.632
 INTER + INTRA:          -6.969
 INTER:                  -6.719
 INTRA:                  -0.250
 UNBOUND:                -0.597
  Name = 
  3 active torsions:
  status: ('A' for Active; 'I' for Inactive)
    1  A    between atoms: C_2  and  C_17
    2  A    between atoms: N_3  and  C_4
    3  A    between atoms: N_7  and  C_8
                            x       y       z     vdW  Elec       q    Type
                         _______ _______ _______ _____ _____    ______ ____

>  <TORSDO>
F 3

$$$$
=
 OpenBabel07192307433D

 40 42  0  0  0  0  0  0  0  0999 V2000
    1.6690    8.7500   19.7750 C   0  0  0  0  0  0  0  0  0  0  0  0
    0.9730    9.8820   18.9980 C   0  0  0  0  0  0  0  0  0  0  0  0
   -0.4550   10.1220   19.4800 C   0  0  0  0  0  0  0  0  0  0  0  0
   -0.4860   10.1680   20.9390 N   0  0  0  0  0  0  0  0  0  0  0  0
    0.0160    8.9840   21.6530 C   0  0  0  0  0  0  0  0  0  0  0  0
    0.7050    8.0040   20.7040 C   0  0  0  0  0  0  0  0  0  0  0  0
    2.4540    9.2030   20.3960 H   0  0  0  0  0  0  0  0  0  0  0  0
    1.5590   10.8010   19.1220 H   0  0  0  0  0  0  0  0  0  0  0  0
    0.9520    9.6810   17.9200 H   0  0  0  0  0  0  0  0  0  0  0  0
   -1.0980    9.2990   19.1440 H   0  0  0  0  0  0  0  0  0  0  0  0
   -0.8800   11.0120   19.0050 H   0  0  0  0  0  0  0  0  0  0  0  0
    0.7470    9.2840   22.4160 H   0  0  0  0  0  0  0  0  0  0  0  0
   -0.8110    8.4750   22.1600 H   0  0  0  0  0  0  0  0  0  0  0  0
   -0.0430    7.4610   20.1120 H   0  0  0  0  0  0  0  0  0  0  0  0
    1.2340    7.2440   21.2900 H   0  0  0  0  0  0  0  0  0  0  0  0
   -0.6640   11.3510   21.6480 C   0  0  0  0  0  0  0  0  0  0  0  0
    0.0670   12.5090   21.3190 C   0  0  0  0  0  0  0  0  0  0  0  0
   -0.0880   13.7120   22.0190 C   0  0  0  0  0  0  0  0  0  0  0  0
   -0.9840   13.7830   23.0760 C   0  0  0  0  0  0  0  0  0  0  0  0
   -1.1800   15.2550   23.9420 Cl  0  0  0  0  0  0  0  0  0  0  0  0
   -1.7230   12.6620   23.4320 C   0  0  0  0  0  0  0  0  0  0  0  0
   -1.5590   11.4640   22.7240 C   0  0  0  0  0  0  0  0  0  0  0  0
    0.7960   12.4880   20.5140 H   0  0  0  0  0  0  0  0  0  0  0  0
    0.5020   14.5800   21.7350 H   0  0  0  0  0  0  0  0  0  0  0  0
   -2.4330   12.7080   24.2520 H   0  0  0  0  0  0  0  0  0  0  0  0
   -2.1800   10.6260   23.0240 H   0  0  0  0  0  0  0  0  0  0  0  0
    2.5830    6.1490   20.4270 O   0  0  0  0  0  0  0  0  0  0  0  0
    2.7170    6.5560   19.2790 C   0  0  0  0  0  0  0  0  0  0  0  0
    2.3360    7.8180   18.8660 N   0  0  0  0  0  0  0  0  0  0  0  0
    2.5180    8.1140   17.9180 H   0  0  0  0  0  0  0  0  0  0  0  0
    3.3470    5.6820   18.2550 C   0  0  0  0  0  0  0  0  0  0  0  0
    2.8280    4.3990   18.0780 C   0  0  0  0  0  0  0  0  0  0  0  0
    3.4110    3.5880   17.1230 C   0  0  0  0  0  0  0  0  0  0  0  0
    4.4470    3.9720   16.3480 N   0  0  0  0  0  0  0  0  0  0  0  0
    4.9140    5.2260   16.5240 C   0  0  0  0  0  0  0  0  0  0  0  0
    4.4030    6.1150   17.4540 C   0  0  0  0  0  0  0  0  0  0  0  0
    1.9940    4.0420   18.6730 H   0  0  0  0  0  0  0  0  0  0  0  0
    3.0490    2.5780   16.9490 H   0  0  0  0  0  0  0  0  0  0  0  0
    5.7340    5.5090   15.8690 H   0  0  0  0  0  0  0  0  0  0  0  0
    4.8080    7.1170   17.5150 H   0  0  0  0  0  0  0  0  0  0  0  0
  1  7  1  0  0  0  0
  1  6  1  0  0  0  0
  2  8  1  0  0  0  0
  2  3  1  0  0  0  0
  2  1  1  0  0  0  0
  3  4  1  0  0  0  0
  4 16  1  0  0  0  0
  4  5  1  0  0  0  0
  5 13  1  0  0  0  0
  5 12  1  0  0  0  0
  6 15  1  0  0  0  0
  6  5  1  0  0  0  0
  9  2  1  0  0  0  0
 10  3  1  0  0  0  0
 11  3  1  0  0  0  0
 14  6  1  0  0  0  0
 16 22  1  0  0  0  0
 17 16  2  0  0  0  0
 17 18  1  0  0  0  0
 18 19  2  0  0  0  0
 19 21  1  0  0  0  0
 19 20  1  0  0  0  0
 21 25  1  0  0  0  0
 22 26  1  0  0  0  0
 22 21  2  0  0  0  0
 23 17  1  0  0  0  0
 24 18  1  0  0  0  0
 28 27  2  0  0  0  0
 29 28  1  0  0  0  0
 29  1  1  0  0  0  0
 30 29  1  0  0  0  0
 31 28  1  0  0  0  0
 32 31  1  0  0  0  0
 32 37  1  0  0  0  0
 33 32  2  0  0  0  0
 34 35  2  0  0  0  0
 34 33  1  0  0  0  0
 35 36  1  0  0  0  0
 36 40  1  0  0  0  0
 36 31  2  0  0  0  0
 38 33  1  0  0  0  0
 39 35  1  0  0  0  0
M  END
>  <MODEL>
15

>  <REMARK>
 VINA RESULT:    -5.360      4.379      9.556
 INTER + INTRA:          -6.897
 INTER:                  -7.094
 INTRA:                   0.197
 UNBOUND:                -0.597
  Name = 
  3 active torsions:
  status: ('A' for Active; 'I' for Inactive)
    1  A    between atoms: C_2  and  C_17
    2  A    between atoms: N_3  and  C_4
    3  A    between atoms: N_7  and  C_8
                            x       y       z     vdW  Elec       q    Type
                         _______ _______ _______ _____ _____    ______ ____

>  <TORSDO>
F 3

$$$$
=
 OpenBabel07192307433D

 40 42  0  0  0  0  0  0  0  0999 V2000
    0.9860   10.0040   20.8100 C   0  0  0  0  0  0  0  0  0  0  0  0
    1.2780    8.6710   21.5220 C   0  0  0  0  0  0  0  0  0  0  0  0
    1.0540    7.4680   20.6110 C   0  0  0  0  0  0  0  0  0  0  0  0
    1.6750    7.7040   19.3110 N   0  0  0  0  0  0  0  0  0  0  0  0
    1.2320    8.8950   18.5690 C   0  0  0  0  0  0  0  0  0  0  0  0
    0.3520    9.8000   19.4300 C   0  0  0  0  0  0  0  0  0  0  0  0
    1.9430   10.5260   20.6680 H   0  0  0  0  0  0  0  0  0  0  0  0
    2.3210    8.6800   21.8630 H   0  0  0  0  0  0  0  0  0  0  0  0
    0.6660    8.5500   22.4240 H   0  0  0  0  0  0  0  0  0  0  0  0
   -0.0240    7.3180   20.4600 H   0  0  0  0  0  0  0  0  0  0  0  0
    1.3920    6.5460   21.0960 H   0  0  0  0  0  0  0  0  0  0  0  0
    2.1000    9.4820   18.2410 H   0  0  0  0  0  0  0  0  0  0  0  0
    0.6730    8.5920   17.6760 H   0  0  0  0  0  0  0  0  0  0  0  0
   -0.6500    9.3640   19.5380 H   0  0  0  0  0  0  0  0  0  0  0  0
    0.2080   10.7590   18.9180 H   0  0  0  0  0  0  0  0  0  0  0  0
    2.8400    7.0600   18.9090 C   0  0  0  0  0  0  0  0  0  0  0  0
    3.3590    5.9770   19.6430 C   0  0  0  0  0  0  0  0  0  0  0  0
    4.5330    5.3140   19.2640 C   0  0  0  0  0  0  0  0  0  0  0  0
    5.2210    5.7270   18.1320 C   0  0  0  0  0  0  0  0  0  0  0  0
    6.6640    4.9190   17.6600 Cl  0  0  0  0  0  0  0  0  0  0  0  0
    4.7420    6.7920   17.3810 C   0  0  0  0  0  0  0  0  0  0  0  0
    3.5670    7.4480   17.7710 C   0  0  0  0  0  0  0  0  0  0  0  0
    2.8630    5.6400   20.5490 H   0  0  0  0  0  0  0  0  0  0  0  0
    4.9010    4.4860   19.8640 H   0  0  0  0  0  0  0  0  0  0  0  0
    5.2690    7.1180   16.4890 H   0  0  0  0  0  0  0  0  0  0  0  0
    3.2200    8.2560   17.1350 H   0  0  0  0  0  0  0  0  0  0  0  0
    1.0490   12.8360   20.8470 O   0  0  0  0  0  0  0  0  0  0  0  0
    0.2420   12.2500   21.5590 C   0  0  0  0  0  0  0  0  0  0  0  0
    0.1520   10.8740   21.6380 N   0  0  0  0  0  0  0  0  0  0  0  0
   -0.5010   10.4490   22.2810 H   0  0  0  0  0  0  0  0  0  0  0  0
   -0.6880   13.0290   22.4180 C   0  0  0  0  0  0  0  0  0  0  0  0
   -1.7990   12.3730   22.9470 C   0  0  0  0  0  0  0  0  0  0  0  0
   -2.6610   13.0980   23.7490 C   0  0  0  0  0  0  0  0  0  0  0  0
   -2.4810   14.4000   24.0530 N   0  0  0  0  0  0  0  0  0  0  0  0
   -1.3860   15.0040   23.5450 C   0  0  0  0  0  0  0  0  0  0  0  0
   -0.4640   14.3700   22.7300 C   0  0  0  0  0  0  0  0  0  0  0  0
   -1.9880   11.3260   22.7370 H   0  0  0  0  0  0  0  0  0  0  0  0
   -3.5440   12.6360   24.1820 H   0  0  0  0  0  0  0  0  0  0  0  0
   -1.2620   16.0470   23.8280 H   0  0  0  0  0  0  0  0  0  0  0  0
    0.4090   14.9100   22.3880 H   0  0  0  0  0  0  0  0  0  0  0  0
  1  2  1  0  0  0  0
  1 29  1  0  0  0  0
  2  8  1  0  0  0  0
  2  9  1  0  0  0  0
  3 11  1  0  0  0  0
  3  2  1  0  0  0  0
  4  3  1  0  0  0  0
  5  4  1  0  0  0  0
  5  6  1  0  0  0  0
  6 14  1  0  0  0  0
  6  1  1  0  0  0  0
  7  1  1  0  0  0  0
 10  3  1  0  0  0  0
 12  5  1  0  0  0  0
 13  5  1  0  0  0  0
 15  6  1  0  0  0  0
 16  4  1  0  0  0  0
 16 17  1  0  0  0  0
 17 23  1  0  0  0  0
 18 17  2  0  0  0  0
 18 24  1  0  0  0  0
 19 18  1  0  0  0  0
 20 19  1  0  0  0  0
 21 22  1  0  0  0  0
 21 19  2  0  0  0  0
 22 16  2  0  0  0  0
 25 21  1  0  0  0  0
 26 22  1  0  0  0  0
 27 28  2  0  0  0  0
 28 29  1  0  0  0  0
 28 31  1  0  0  0  0
 29 30  1  0  0  0  0
 31 36  2  0  0  0  0
 31 32  1  0  0  0  0
 32 33  2  0  0  0  0
 33 34  1  0  0  0  0
 33 38  1  0  0  0  0
 35 39  1  0  0  0  0
 35 34  2  0  0  0  0
 36 35  1  0  0  0  0
 37 32  1  0  0  0  0
 40 36  1  0  0  0  0
M  END
>  <MODEL>
16

>  <REMARK>
 VINA RESULT:    -5.271      2.994      5.019
 INTER + INTRA:          -6.793
 INTER:                  -6.197
 INTRA:                  -0.596
 UNBOUND:                -0.597
  Name = 
  3 active torsions:
  status: ('A' for Active; 'I' for Inactive)
    1  A    between atoms: C_2  and  C_17
    2  A    between atoms: N_3  and  C_4
    3  A    between atoms: N_7  and  C_8
                            x       y       z     vdW  Elec       q    Type
                         _______ _______ _______ _____ _____    ______ ____

>  <TORSDO>
F 3

$$$$
=
 OpenBabel07192307433D

 40 42  0  0  0  0  0  0  0  0999 V2000
    0.1140   11.2100   20.9270 C   0  0  0  0  0  0  0  0  0  0  0  0
   -0.6370    9.9870   20.3720 C   0  0  0  0  0  0  0  0  0  0  0  0
   -0.2240    9.6540   18.9420 C   0  0  0  0  0  0  0  0  0  0  0  0
    1.2310    9.6790   18.8260 N   0  0  0  0  0  0  0  0  0  0  0  0
    1.9060   10.9350   19.1870 C   0  0  0  0  0  0  0  0  0  0  0  0
    0.9440   11.9190   19.8520 C   0  0  0  0  0  0  0  0  0  0  0  0
    0.8030   10.8560   21.7070 H   0  0  0  0  0  0  0  0  0  0  0  0
   -0.4290    9.1270   21.0210 H   0  0  0  0  0  0  0  0  0  0  0  0
   -1.7240   10.1310   20.4010 H   0  0  0  0  0  0  0  0  0  0  0  0
   -0.6410   10.4030   18.2560 H   0  0  0  0  0  0  0  0  0  0  0  0
   -0.6720    8.7090   18.6190 H   0  0  0  0  0  0  0  0  0  0  0  0
    2.7240   10.7360   19.8920 H   0  0  0  0  0  0  0  0  0  0  0  0
    2.3360   11.3990   18.2930 H   0  0  0  0  0  0  0  0  0  0  0  0
    0.2820   12.3680   19.1010 H   0  0  0  0  0  0  0  0  0  0  0  0
    1.5170   12.7500   20.2820 H   0  0  0  0  0  0  0  0  0  0  0  0
    1.9930    8.5230   18.7000 C   0  0  0  0  0  0  0  0  0  0  0  0
    1.9950    7.5440   19.7110 C   0  0  0  0  0  0  0  0  0  0  0  0
    2.7580    6.3720   19.6140 C   0  0  0  0  0  0  0  0  0  0  0  0
    3.5440    6.1550   18.4910 C   0  0  0  0  0  0  0  0  0  0  0  0
    4.4830    4.7210   18.3630 Cl  0  0  0  0  0  0  0  0  0  0  0  0
    3.5690    7.0970   17.4720 C   0  0  0  0  0  0  0  0  0  0  0  0
    2.8030    8.2650   17.5810 C   0  0  0  0  0  0  0  0  0  0  0  0
    1.4120    7.6880   20.6170 H   0  0  0  0  0  0  0  0  0  0  0  0
    2.7330    5.6460   20.4220 H   0  0  0  0  0  0  0  0  0  0  0  0
    4.1750    6.9330   16.5850 H   0  0  0  0  0  0  0  0  0  0  0  0
    2.8360    8.9560   16.7450 H   0  0  0  0  0  0  0  0  0  0  0  0
   -1.2400   10.8000   23.3810 O   0  0  0  0  0  0  0  0  0  0  0  0
   -1.3930   11.8610   22.7880 C   0  0  0  0  0  0  0  0  0  0  0  0
   -0.8050   12.1470   21.5720 N   0  0  0  0  0  0  0  0  0  0  0  0
   -1.0100   13.0210   21.1080 H   0  0  0  0  0  0  0  0  0  0  0  0
   -2.2750   12.9090   23.3660 C   0  0  0  0  0  0  0  0  0  0  0  0
   -3.6210   12.5990   23.5620 C   0  0  0  0  0  0  0  0  0  0  0  0
   -4.4390   13.5730   24.1040 C   0  0  0  0  0  0  0  0  0  0  0  0
   -4.0050   14.8010   24.4590 N   0  0  0  0  0  0  0  0  0  0  0  0
   -2.6940   15.0650   24.2790 C   0  0  0  0  0  0  0  0  0  0  0  0
   -1.7930   14.1620   23.7430 C   0  0  0  0  0  0  0  0  0  0  0  0
   -4.0200   11.6260   23.2970 H   0  0  0  0  0  0  0  0  0  0  0  0
   -5.4960   13.3850   24.2720 H   0  0  0  0  0  0  0  0  0  0  0  0
   -2.3760   16.0550   24.5970 H   0  0  0  0  0  0  0  0  0  0  0  0
   -0.7480   14.4340   23.6600 H   0  0  0  0  0  0  0  0  0  0  0  0
  1 29  1  0  0  0  0
  1  7  1  0  0  0  0
  2  9  1  0  0  0  0
  2  1  1  0  0  0  0
  2  8  1  0  0  0  0
  3  2  1  0  0  0  0
  4  3  1  0  0  0  0
  4  5  1  0  0  0  0
  5  6  1  0  0  0  0
  5 12  1  0  0  0  0
  6 15  1  0  0  0  0
  6  1  1  0  0  0  0
 10  3  1  0  0  0  0
 11  3  1  0  0  0  0
 13  5  1  0  0  0  0
 14  6  1  0  0  0  0
 16  4  1  0  0  0  0
 16 17  1  0  0  0  0
 17 23  1  0  0  0  0
 18 17  2  0  0  0  0
 18 24  1  0  0  0  0
 19 18  1  0  0  0  0
 20 19  1  0  0  0  0
 21 22  1  0  0  0  0
 21 19  2  0  0  0  0
 22 16  2  0  0  0  0
 25 21  1  0  0  0  0
 26 22  1  0  0  0  0
 28 31  1  0  0  0  0
 28 27  2  0  0  0  0
 29 28  1  0  0  0  0
 30 29  1  0  0  0  0
 31 32  2  0  0  0  0
 31 36  1  0  0  0  0
 32 33  1  0  0  0  0
 33 38  1  0  0  0  0
 33 34  2  0  0  0  0
 35 34  1  0  0  0  0
 35 39  1  0  0  0  0
 36 35  2  0  0  0  0
 37 32  1  0  0  0  0
 40 36  1  0  0  0  0
M  END
>  <MODEL>
17

>  <REMARK>
 VINA RESULT:    -5.271      3.754      6.319
 INTER + INTRA:          -6.793
 INTER:                  -6.403
 INTRA:                  -0.390
 UNBOUND:                -0.597
  Name = 
  3 active torsions:
  status: ('A' for Active; 'I' for Inactive)
    1  A    between atoms: C_2  and  C_17
    2  A    between atoms: N_3  and  C_4
    3  A    between atoms: N_7  and  C_8
                            x       y       z     vdW  Elec       q    Type
                         _______ _______ _______ _____ _____    ______ ____

>  <TORSDO>
F 3

$$$$
=
 OpenBabel07192307433D

 40 42  0  0  0  0  0  0  0  0999 V2000
    2.5030    8.0470   18.0540 C   0  0  0  0  0  0  0  0  0  0  0  0
    1.5610    7.8600   19.2560 C   0  0  0  0  0  0  0  0  0  0  0  0
    1.1300    9.1900   19.8670 C   0  0  0  0  0  0  0  0  0  0  0  0
    0.7250   10.1140   18.8130 N   0  0  0  0  0  0  0  0  0  0  0  0
    1.7220   10.4190   17.7750 C   0  0  0  0  0  0  0  0  0  0  0  0
    2.9420    9.5050   17.8810 C   0  0  0  0  0  0  0  0  0  0  0  0
    1.9550    7.7500   17.1490 H   0  0  0  0  0  0  0  0  0  0  0  0
    0.6730    7.3090   18.9200 H   0  0  0  0  0  0  0  0  0  0  0  0
    2.0190    7.2440   20.0390 H   0  0  0  0  0  0  0  0  0  0  0  0
    1.9740    9.6320   20.4130 H   0  0  0  0  0  0  0  0  0  0  0  0
    0.3620    9.0350   20.6320 H   0  0  0  0  0  0  0  0  0  0  0  0
    1.2850   10.2820   16.7770 H   0  0  0  0  0  0  0  0  0  0  0  0
    2.0450   11.4630   17.8630 H   0  0  0  0  0  0  0  0  0  0  0  0
    3.5730    9.8100   18.7270 H   0  0  0  0  0  0  0  0  0  0  0  0
    3.5630    9.6240   16.9850 H   0  0  0  0  0  0  0  0  0  0  0  0
   -0.6040   10.4520   18.5820 C   0  0  0  0  0  0  0  0  0  0  0  0
   -1.3430    9.8270   17.5590 C   0  0  0  0  0  0  0  0  0  0  0  0
   -2.6810   10.1520   17.3000 C   0  0  0  0  0  0  0  0  0  0  0  0
   -3.3140   11.1200   18.0680 C   0  0  0  0  0  0  0  0  0  0  0  0
   -4.9560   11.5250   17.7580 Cl  0  0  0  0  0  0  0  0  0  0  0  0
   -2.6200   11.7580   19.0860 C   0  0  0  0  0  0  0  0  0  0  0  0
   -1.2810   11.4260   19.3340 C   0  0  0  0  0  0  0  0  0  0  0  0
   -0.8750    9.0830   16.9200 H   0  0  0  0  0  0  0  0  0  0  0  0
   -3.2110    9.6490   16.4960 H   0  0  0  0  0  0  0  0  0  0  0  0
   -3.1080   12.5120   19.6970 H   0  0  0  0  0  0  0  0  0  0  0  0
   -0.7920   11.9340   20.1590 H   0  0  0  0  0  0  0  0  0  0  0  0
    4.2390    7.3340   15.9320 O   0  0  0  0  0  0  0  0  0  0  0  0
    4.4670    6.9040   17.0570 C   0  0  0  0  0  0  0  0  0  0  0  0
    3.6650    7.1650   18.1510 N   0  0  0  0  0  0  0  0  0  0  0  0
    3.8770    6.7400   19.0420 H   0  0  0  0  0  0  0  0  0  0  0  0
    5.6450    6.0280   17.2880 C   0  0  0  0  0  0  0  0  0  0  0  0
    6.0710    5.2110   16.2400 C   0  0  0  0  0  0  0  0  0  0  0  0
    7.1700    4.4000   16.4540 C   0  0  0  0  0  0  0  0  0  0  0  0
    7.8550    4.3610   17.6160 N   0  0  0  0  0  0  0  0  0  0  0  0
    7.4350    5.1780   18.6040 C   0  0  0  0  0  0  0  0  0  0  0  0
    6.3460    6.0250   18.4940 C   0  0  0  0  0  0  0  0  0  0  0  0
    5.5580    5.2060   15.2840 H   0  0  0  0  0  0  0  0  0  0  0  0
    7.5400    3.7400   15.6730 H   0  0  0  0  0  0  0  0  0  0  0  0
    8.0230    5.1370   19.5180 H   0  0  0  0  0  0  0  0  0  0  0  0
    6.0880    6.6770   19.3180 H   0  0  0  0  0  0  0  0  0  0  0  0
  1 29  1  0  0  0  0
  1  2  1  0  0  0  0
  2  3  1  0  0  0  0
  2  9  1  0  0  0  0
  3 10  1  0  0  0  0
  3 11  1  0  0  0  0
  4  3  1  0  0  0  0
  5 13  1  0  0  0  0
  5  6  1  0  0  0  0
  5  4  1  0  0  0  0
  6  1  1  0  0  0  0
  6 14  1  0  0  0  0
  7  1  1  0  0  0  0
  8  2  1  0  0  0  0
 12  5  1  0  0  0  0
 15  6  1  0  0  0  0
 16  4  1  0  0  0  0
 16 22  1  0  0  0  0
 17 16  2  0  0  0  0
 18 17  1  0  0  0  0
 18 19  2  0  0  0  0
 19 21  1  0  0  0  0
 20 19  1  0  0  0  0
 21 22  2  0  0  0  0
 21 25  1  0  0  0  0
 22 26  1  0  0  0  0
 23 17  1  0  0  0  0
 24 18  1  0  0  0  0
 27 28  2  0  0  0  0
 28 31  1  0  0  0  0
 28 29  1  0  0  0  0
 29 30  1  0  0  0  0
 31 36  1  0  0  0  0
 32 33  1  0  0  0  0
 32 31  2  0  0  0  0
 33 34  2  0  0  0  0
 34 35  1  0  0  0  0
 35 39  1  0  0  0  0
 36 35  2  0  0  0  0
 36 40  1  0  0  0  0
 37 32  1  0  0  0  0
 38 33  1  0  0  0  0
M  END
>  <MODEL>
18

>  <REMARK>
 VINA RESULT:    -5.260      4.046      8.707
 INTER + INTRA:          -6.779
 INTER:                  -6.318
 INTRA:                  -0.462
 UNBOUND:                -0.597
  Name = 
  3 active torsions:
  status: ('A' for Active; 'I' for Inactive)
    1  A    between atoms: C_2  and  C_17
    2  A    between atoms: N_3  and  C_4
    3  A    between atoms: N_7  and  C_8
                            x       y       z     vdW  Elec       q    Type
                         _______ _______ _______ _____ _____    ______ ____

>  <TORSDO>
F 3

$$$$
=
 OpenBabel07192307433D

 40 42  0  0  0  0  0  0  0  0999 V2000
    0.0660    9.1550   19.1110 C   0  0  0  0  0  0  0  0  0  0  0  0
    0.9000    9.5370   17.8750 C   0  0  0  0  0  0  0  0  0  0  0  0
    2.3980    9.3780   18.1140 C   0  0  0  0  0  0  0  0  0  0  0  0
    2.6650    8.0940   18.7550 N   0  0  0  0  0  0  0  0  0  0  0  0
    1.9940    7.8380   20.0390 C   0  0  0  0  0  0  0  0  0  0  0  0
    0.9400    8.9010   20.3440 C   0  0  0  0  0  0  0  0  0  0  0  0
   -0.4710    8.2250   18.8800 H   0  0  0  0  0  0  0  0  0  0  0  0
    0.5940    8.8960   17.0380 H   0  0  0  0  0  0  0  0  0  0  0  0
    0.7010   10.5670   17.5530 H   0  0  0  0  0  0  0  0  0  0  0  0
    2.7500   10.1790   18.7780 H   0  0  0  0  0  0  0  0  0  0  0  0
    2.9570    9.5280   17.1850 H   0  0  0  0  0  0  0  0  0  0  0  0
    1.4910    6.8620   20.0160 H   0  0  0  0  0  0  0  0  0  0  0  0
    2.7320    7.8180   20.8490 H   0  0  0  0  0  0  0  0  0  0  0  0
    1.4230    9.8340   20.6620 H   0  0  0  0  0  0  0  0  0  0  0  0
    0.3310    8.5730   21.1960 H   0  0  0  0  0  0  0  0  0  0  0  0
    3.2470    7.0260   18.0800 C   0  0  0  0  0  0  0  0  0  0  0  0
    4.3570    7.2220   17.2360 C   0  0  0  0  0  0  0  0  0  0  0  0
    4.9590    6.1660   16.5390 C   0  0  0  0  0  0  0  0  0  0  0  0
    4.4570    4.8790   16.6730 C   0  0  0  0  0  0  0  0  0  0  0  0
    5.1890    3.5770   15.8220 Cl  0  0  0  0  0  0  0  0  0  0  0  0
    3.3630    4.6450   17.4960 C   0  0  0  0  0  0  0  0  0  0  0  0
    2.7690    5.7100   18.1860 C   0  0  0  0  0  0  0  0  0  0  0  0
    4.7640    8.2180   17.0860 H   0  0  0  0  0  0  0  0  0  0  0  0
    5.8100    6.3640   15.8940 H   0  0  0  0  0  0  0  0  0  0  0  0
    2.9670    3.6410   17.6130 H   0  0  0  0  0  0  0  0  0  0  0  0
    1.9350    5.4690   18.8380 H   0  0  0  0  0  0  0  0  0  0  0  0
   -2.1020    9.8660   17.4330 O   0  0  0  0  0  0  0  0  0  0  0  0
   -1.9860   10.4190   18.5210 C   0  0  0  0  0  0  0  0  0  0  0  0
   -0.9490   10.1690   19.3980 N   0  0  0  0  0  0  0  0  0  0  0  0
   -0.8800   10.6930   20.2580 H   0  0  0  0  0  0  0  0  0  0  0  0
   -2.9820   11.4400   18.9400 C   0  0  0  0  0  0  0  0  0  0  0  0
   -4.2200   11.4530   18.2960 C   0  0  0  0  0  0  0  0  0  0  0  0
   -5.1470   12.4000   18.6900 C   0  0  0  0  0  0  0  0  0  0  0  0
   -4.9220   13.3050   19.6660 N   0  0  0  0  0  0  0  0  0  0  0  0
   -3.7250   13.2540   20.2860 C   0  0  0  0  0  0  0  0  0  0  0  0
   -2.7280   12.3490   19.9670 C   0  0  0  0  0  0  0  0  0  0  0  0
   -4.4530   10.7450   17.5080 H   0  0  0  0  0  0  0  0  0  0  0  0
   -6.1240   12.4570   18.2180 H   0  0  0  0  0  0  0  0  0  0  0  0
   -3.5870   13.9840   21.0810 H   0  0  0  0  0  0  0  0  0  0  0  0
   -1.8050   12.3470   20.5310 H   0  0  0  0  0  0  0  0  0  0  0  0
  1 29  1  0  0  0  0
  1  6  1  0  0  0  0
  2  3  1  0  0  0  0
  2  1  1  0  0  0  0
  3  4  1  0  0  0  0
  3 10  1  0  0  0  0
  4  5  1  0  0  0  0
  5  6  1  0  0  0  0
  5 13  1  0  0  0  0
  6 14  1  0  0  0  0
  6 15  1  0  0  0  0
  7  1  1  0  0  0  0
  8  2  1  0  0  0  0
  9  2  1  0  0  0  0
 11  3  1  0  0  0  0
 12  5  1  0  0  0  0
 16 22  1  0  0  0  0
 16  4  1  0  0  0  0
 17 16  2  0  0  0  0
 18 19  2  0  0  0  0
 18 17  1  0  0  0  0
 19 21  1  0  0  0  0
 20 19  1  0  0  0  0
 21 25  1  0  0  0  0
 21 22  2  0  0  0  0
 22 26  1  0  0  0  0
 23 17  1  0  0  0  0
 24 18  1  0  0  0  0
 27 28  2  0  0  0  0
 28 31  1  0  0  0  0
 28 29  1  0  0  0  0
 29 30  1  0  0  0  0
 31 36  1  0  0  0  0
 32 33  1  0  0  0  0
 32 31  2  0  0  0  0
 33 34  2  0  0  0  0
 34 35  1  0  0  0  0
 35 39  1  0  0  0  0
 36 35  2  0  0  0  0
 36 40  1  0  0  0  0
 37 32  1  0  0  0  0
 38 33  1  0  0  0  0
M  END
>  <MODEL>
19

>  <REMARK>
 VINA RESULT:    -5.110      3.000      4.642
 INTER + INTRA:          -6.603
 INTER:                  -6.260
 INTRA:                  -0.344
 UNBOUND:                -0.597
  Name = 
  3 active torsions:
  status: ('A' for Active; 'I' for Inactive)
    1  A    between atoms: C_2  and  C_17
    2  A    between atoms: N_3  and  C_4
    3  A    between atoms: N_7  and  C_8
                            x       y       z     vdW  Elec       q    Type
                         _______ _______ _______ _____ _____    ______ ____

>  <TORSDO>
F 3

$$$$
=
 OpenBabel07192307433D

 40 42  0  0  0  0  0  0  0  0999 V2000
    0.3650    9.4490   19.4480 C   0  0  0  0  0  0  0  0  0  0  0  0
    1.0320    9.2180   18.0810 C   0  0  0  0  0  0  0  0  0  0  0  0
    2.4280    8.6170   18.2120 C   0  0  0  0  0  0  0  0  0  0  0  0
    2.4060    7.5090   19.1630 N   0  0  0  0  0  0  0  0  0  0  0  0
    1.9370    7.8110   20.5250 C   0  0  0  0  0  0  0  0  0  0  0  0
    1.3300    9.2110   20.6140 C   0  0  0  0  0  0  0  0  0  0  0  0
   -0.4630    8.7330   19.5430 H   0  0  0  0  0  0  0  0  0  0  0  0
    0.3980    8.5410   17.4940 H   0  0  0  0  0  0  0  0  0  0  0  0
    1.1010   10.1460   17.5000 H   0  0  0  0  0  0  0  0  0  0  0  0
    3.1230    9.3820   18.5840 H   0  0  0  0  0  0  0  0  0  0  0  0
    2.8260    8.3420   17.2300 H   0  0  0  0  0  0  0  0  0  0  0  0
    1.1650    7.0900   20.8280 H   0  0  0  0  0  0  0  0  0  0  0  0
    2.7690    7.7330   21.2330 H   0  0  0  0  0  0  0  0  0  0  0  0
    2.1240    9.9690   20.6060 H   0  0  0  0  0  0  0  0  0  0  0  0
    0.8180    9.3230   21.5770 H   0  0  0  0  0  0  0  0  0  0  0  0
    2.5010    6.1800   18.7680 C   0  0  0  0  0  0  0  0  0  0  0  0
    1.6780    5.1930   19.3430 C   0  0  0  0  0  0  0  0  0  0  0  0
    1.7570    3.8450   18.9690 C   0  0  0  0  0  0  0  0  0  0  0  0
    2.6710    3.4530   18.0020 C   0  0  0  0  0  0  0  0  0  0  0  0
    2.7750    1.8010   17.5360 Cl  0  0  0  0  0  0  0  0  0  0  0  0
    3.5010    4.3960   17.4110 C   0  0  0  0  0  0  0  0  0  0  0  0
    3.4140    5.7410   17.7950 C   0  0  0  0  0  0  0  0  0  0  0  0
    0.9670    5.4560   20.1210 H   0  0  0  0  0  0  0  0  0  0  0  0
    1.1060    3.1170   19.4440 H   0  0  0  0  0  0  0  0  0  0  0  0
    4.2150    4.1010   16.6470 H   0  0  0  0  0  0  0  0  0  0  0  0
    4.0650    6.4420   17.2830 H   0  0  0  0  0  0  0  0  0  0  0  0
   -0.9640   10.5550   21.6930 O   0  0  0  0  0  0  0  0  0  0  0  0
   -0.8260   11.2400   20.6860 C   0  0  0  0  0  0  0  0  0  0  0  0
   -0.2240   10.7860   19.5300 N   0  0  0  0  0  0  0  0  0  0  0  0
   -0.1850   11.3810   18.7150 H   0  0  0  0  0  0  0  0  0  0  0  0
   -1.3490   12.6310   20.6640 C   0  0  0  0  0  0  0  0  0  0  0  0
   -0.5730   13.6150   20.0500 C   0  0  0  0  0  0  0  0  0  0  0  0
   -1.0620   14.9070   20.0260 C   0  0  0  0  0  0  0  0  0  0  0  0
   -2.2500   15.2670   20.5550 N   0  0  0  0  0  0  0  0  0  0  0  0
   -2.9910   14.2910   21.1220 C   0  0  0  0  0  0  0  0  0  0  0  0
   -2.5910   12.9680   21.2010 C   0  0  0  0  0  0  0  0  0  0  0  0
    0.3880   13.3780   19.6060 H   0  0  0  0  0  0  0  0  0  0  0  0
   -0.4950   15.7120   19.5650 H   0  0  0  0  0  0  0  0  0  0  0  0
   -3.9510   14.6120   21.5190 H   0  0  0  0  0  0  0  0  0  0  0  0
   -3.2540   12.2340   21.6410 H   0  0  0  0  0  0  0  0  0  0  0  0
  1 29  1  0  0  0  0
  1  7  1  0  0  0  0
  1  6  1  0  0  0  0
  2  3  1  0  0  0  0
  2  1  1  0  0  0  0
  3 10  1  0  0  0  0
  3  4  1  0  0  0  0
  4  5  1  0  0  0  0
  5  6  1  0  0  0  0
  5 12  1  0  0  0  0
  5 13  1  0  0  0  0
  6 15  1  0  0  0  0
  8  2  1  0  0  0  0
  9  2  1  0  0  0  0
 11  3  1  0  0  0  0
 14  6  1  0  0  0  0
 16  4  1  0  0  0  0
 16 17  1  0  0  0  0
 17 23  1  0  0  0  0
 18 17  2  0  0  0  0
 18 24  1  0  0  0  0
 19 18  1  0  0  0  0
 20 19  1  0  0  0  0
 21 22  1  0  0  0  0
 21 19  2  0  0  0  0
 22 16  2  0  0  0  0
 25 21  1  0  0  0  0
 26 22  1  0  0  0  0
 28 27  2  0  0  0  0
 29 28  1  0  0  0  0
 30 29  1  0  0  0  0
 31 28  1  0  0  0  0
 31 36  1  0  0  0  0
 32 31  2  0  0  0  0
 33 32  1  0  0  0  0
 33 34  2  0  0  0  0
 34 35  1  0  0  0  0
 35 36  2  0  0  0  0
 35 39  1  0  0  0  0
 36 40  1  0  0  0  0
 37 32  1  0  0  0  0
 38 33  1  0  0  0  0
M  END
>  <MODEL>
20

>  <REMARK>
 VINA RESULT:    -5.090      3.175      5.059
 INTER + INTRA:          -6.579
 INTER:                  -6.421
 INTRA:                  -0.158
 UNBOUND:                -0.597
  Name = 
  3 active torsions:
  status: ('A' for Active; 'I' for Inactive)
    1  A    between atoms: C_2  and  C_17
    2  A    between atoms: N_3  and  C_4
    3  A    between atoms: N_7  and  C_8
                            x       y       z     vdW  Elec       q    Type
                         _______ _______ _______ _____ _____    ______ ____

>  <TORSDO>
F 3

$$$$
=
 OpenBabel07192307433D

 40 42  0  0  0  0  0  0  0  0999 V2000
    1.0900    9.6910   18.3380 C   0  0  0  0  0  0  0  0  0  0  0  0
    0.5360    9.3960   19.7440 C   0  0  0  0  0  0  0  0  0  0  0  0
    0.8080   10.5340   20.7230 C   0  0  0  0  0  0  0  0  0  0  0  0
    0.4710   11.8130   20.1060 N   0  0  0  0  0  0  0  0  0  0  0  0
    1.1640   12.1490   18.8520 C   0  0  0  0  0  0  0  0  0  0  0  0
    1.9510   10.9580   18.3070 C   0  0  0  0  0  0  0  0  0  0  0  0
    0.2340    9.8470   17.6660 H   0  0  0  0  0  0  0  0  0  0  0  0
   -0.5460    9.2340   19.6640 H   0  0  0  0  0  0  0  0  0  0  0  0
    0.9510    8.4680   20.1570 H   0  0  0  0  0  0  0  0  0  0  0  0
    1.8740   10.5440   20.9870 H   0  0  0  0  0  0  0  0  0  0  0  0
    0.2930   10.3580   21.6740 H   0  0  0  0  0  0  0  0  0  0  0  0
    0.4370   12.4510   18.0860 H   0  0  0  0  0  0  0  0  0  0  0  0
    1.8490   12.9890   19.0180 H   0  0  0  0  0  0  0  0  0  0  0  0
    2.8650   10.8060   18.8950 H   0  0  0  0  0  0  0  0  0  0  0  0
    2.2850   11.1810   17.2860 H   0  0  0  0  0  0  0  0  0  0  0  0
   -0.6540   12.5460   20.4650 C   0  0  0  0  0  0  0  0  0  0  0  0
   -0.5510   13.6590   21.3200 C   0  0  0  0  0  0  0  0  0  0  0  0
   -1.6690   14.4120   21.7030 C   0  0  0  0  0  0  0  0  0  0  0  0
   -2.9270   14.0610   21.2340 C   0  0  0  0  0  0  0  0  0  0  0  0
   -4.3050   14.9790   21.6990 Cl  0  0  0  0  0  0  0  0  0  0  0  0
   -3.0710   12.9700   20.3890 C   0  0  0  0  0  0  0  0  0  0  0  0
   -1.9450   12.2240   20.0140 C   0  0  0  0  0  0  0  0  0  0  0  0
    0.4130   13.9500   21.7280 H   0  0  0  0  0  0  0  0  0  0  0  0
   -1.5430   15.2600   22.3700 H   0  0  0  0  0  0  0  0  0  0  0  0
   -4.0500   12.6910   20.0100 H   0  0  0  0  0  0  0  0  0  0  0  0
   -2.1080   11.3970   19.3290 H   0  0  0  0  0  0  0  0  0  0  0  0
    2.2870    7.6310   19.8710 O   0  0  0  0  0  0  0  0  0  0  0  0
    2.3550    7.5790   18.6490 C   0  0  0  0  0  0  0  0  0  0  0  0
    1.8350    8.5470   17.8130 N   0  0  0  0  0  0  0  0  0  0  0  0
    1.9670    8.4730   16.8140 H   0  0  0  0  0  0  0  0  0  0  0  0
    3.0540    6.4410   17.9970 C   0  0  0  0  0  0  0  0  0  0  0  0
    4.2620    6.6970   17.3470 C   0  0  0  0  0  0  0  0  0  0  0  0
    4.9130    5.6370   16.7440 C   0  0  0  0  0  0  0  0  0  0  0  0
    4.4490    4.3690   16.7590 N   0  0  0  0  0  0  0  0  0  0  0  0
    3.2910    4.1470   17.4140 C   0  0  0  0  0  0  0  0  0  0  0  0
    2.5600    5.1370   18.0460 C   0  0  0  0  0  0  0  0  0  0  0  0
    4.6800    7.6970   17.3090 H   0  0  0  0  0  0  0  0  0  0  0  0
    5.8540    5.7830   16.2200 H   0  0  0  0  0  0  0  0  0  0  0  0
    2.9580    3.1110   17.4230 H   0  0  0  0  0  0  0  0  0  0  0  0
    1.6560    4.8770   18.5810 H   0  0  0  0  0  0  0  0  0  0  0  0
  1  2  1  0  0  0  0
  2  9  1  0  0  0  0
  2  3  1  0  0  0  0
  3 10  1  0  0  0  0
  3 11  1  0  0  0  0
  4 16  1  0  0  0  0
  4  3  1  0  0  0  0
  5 13  1  0  0  0  0
  5  4  1  0  0  0  0
  6  1  1  0  0  0  0
  6  5  1  0  0  0  0
  6 14  1  0  0  0  0
  7  1  1  0  0  0  0
  8  2  1  0  0  0  0
 12  5  1  0  0  0  0
 15  6  1  0  0  0  0
 16 17  1  0  0  0  0
 17 18  2  0  0  0  0
 17 23  1  0  0  0  0
 18 24  1  0  0  0  0
 19 20  1  0  0  0  0
 19 18  1  0  0  0  0
 21 19  2  0  0  0  0
 22 21  1  0  0  0  0
 22 16  2  0  0  0  0
 25 21  1  0  0  0  0
 26 22  1  0  0  0  0
 28 27  2  0  0  0  0
 29  1  1  0  0  0  0
 29 28  1  0  0  0  0
 30 29  1  0  0  0  0
 31 36  1  0  0  0  0
 31 28  1  0  0  0  0
 32 31  2  0  0  0  0
 33 34  2  0  0  0  0
 33 32  1  0  0  0  0
 34 35  1  0  0  0  0
 35 39  1  0  0  0  0
 35 36  2  0  0  0  0
 36 40  1  0  0  0  0
 37 32  1  0  0  0  0
 38 33  1  0  0  0  0
M  END
>  <MODEL>
21

>  <REMARK>
 VINA RESULT:    -5.019      4.538      9.640
 INTER + INTRA:          -6.497
 INTER:                  -6.904
 INTRA:                   0.408
 UNBOUND:                -0.597
  Name = 
  3 active torsions:
  status: ('A' for Active; 'I' for Inactive)
    1  A    between atoms: C_2  and  C_17
    2  A    between atoms: N_3  and  C_4
    3  A    between atoms: N_7  and  C_8
                            x       y       z     vdW  Elec       q    Type
                         _______ _______ _______ _____ _____    ______ ____

>  <TORSDO>
F 3

$$$$
=
 OpenBabel07192307433D

 40 42  0  0  0  0  0  0  0  0999 V2000
    2.0580    7.5250   18.4100 C   0  0  0  0  0  0  0  0  0  0  0  0
    3.2840    8.1990   17.7680 C   0  0  0  0  0  0  0  0  0  0  0  0
    4.5690    7.4120   18.0070 C   0  0  0  0  0  0  0  0  0  0  0  0
    4.3420    5.9950   17.7380 N   0  0  0  0  0  0  0  0  0  0  0  0
    3.2810    5.3320   18.5120 C   0  0  0  0  0  0  0  0  0  0  0  0
    2.4470    6.3400   19.3010 C   0  0  0  0  0  0  0  0  0  0  0  0
    1.4210    7.1440   17.6000 H   0  0  0  0  0  0  0  0  0  0  0  0
    3.1060    8.2870   16.6880 H   0  0  0  0  0  0  0  0  0  0  0  0
    3.4240    9.2220   18.1350 H   0  0  0  0  0  0  0  0  0  0  0  0
    4.8760    7.5220   19.0550 H   0  0  0  0  0  0  0  0  0  0  0  0
    5.3970    7.8390   17.4330 H   0  0  0  0  0  0  0  0  0  0  0  0
    2.6040    4.7890   17.8390 H   0  0  0  0  0  0  0  0  0  0  0  0
    3.7220    4.6070   19.2050 H   0  0  0  0  0  0  0  0  0  0  0  0
    3.0080    6.6950   20.1750 H   0  0  0  0  0  0  0  0  0  0  0  0
    1.5560    5.8400   19.7000 H   0  0  0  0  0  0  0  0  0  0  0  0
    4.8460    5.3560   16.6100 C   0  0  0  0  0  0  0  0  0  0  0  0
    5.3130    6.0960   15.5070 C   0  0  0  0  0  0  0  0  0  0  0  0
    5.8190    5.4790   14.3560 C   0  0  0  0  0  0  0  0  0  0  0  0
    5.8680    4.0940   14.2830 C   0  0  0  0  0  0  0  0  0  0  0  0
    6.4880    3.3270   12.8750 Cl  0  0  0  0  0  0  0  0  0  0  0  0
    5.4170    3.3290   15.3500 C   0  0  0  0  0  0  0  0  0  0  0  0
    4.9110    3.9570   16.4960 C   0  0  0  0  0  0  0  0  0  0  0  0
    5.2680    7.1810   15.5150 H   0  0  0  0  0  0  0  0  0  0  0  0
    6.1630    6.0890   13.5260 H   0  0  0  0  0  0  0  0  0  0  0  0
    5.4580    2.2440   15.3070 H   0  0  0  0  0  0  0  0  0  0  0  0
    4.5980    3.3150   17.3120 H   0  0  0  0  0  0  0  0  0  0  0  0
    1.8560    7.7020   21.2300 O   0  0  0  0  0  0  0  0  0  0  0  0
    1.2490    8.5110   20.5390 C   0  0  0  0  0  0  0  0  0  0  0  0
    1.2550    8.4920   19.1580 N   0  0  0  0  0  0  0  0  0  0  0  0
    0.6940    9.1550   18.6430 H   0  0  0  0  0  0  0  0  0  0  0  0
    0.4290    9.5680   21.1880 C   0  0  0  0  0  0  0  0  0  0  0  0
   -0.0690    9.3200   22.4670 C   0  0  0  0  0  0  0  0  0  0  0  0
   -0.8280   10.3050   23.0710 C   0  0  0  0  0  0  0  0  0  0  0  0
   -1.1050   11.4930   22.4940 N   0  0  0  0  0  0  0  0  0  0  0  0
   -0.5920   11.7150   21.2660 C   0  0  0  0  0  0  0  0  0  0  0  0
    0.1770   10.7950   20.5740 C   0  0  0  0  0  0  0  0  0  0  0  0
    0.1280    8.3830   22.9760 H   0  0  0  0  0  0  0  0  0  0  0  0
   -1.2440   10.1610   24.0640 H   0  0  0  0  0  0  0  0  0  0  0  0
   -0.8170   12.6900   20.8410 H   0  0  0  0  0  0  0  0  0  0  0  0
    0.5820   11.0560   19.6060 H   0  0  0  0  0  0  0  0  0  0  0  0
  1 29  1  0  0  0  0
  1  6  1  0  0  0  0
  2  3  1  0  0  0  0
  2  9  1  0  0  0  0
  2  1  1  0  0  0  0
  3 10  1  0  0  0  0
  4  3  1  0  0  0  0
  4  5  1  0  0  0  0
  5 13  1  0  0  0  0
  5  6  1  0  0  0  0
  6 15  1  0  0  0  0
  6 14  1  0  0  0  0
  7  1  1  0  0  0  0
  8  2  1  0  0  0  0
 11  3  1  0  0  0  0
 12  5  1  0  0  0  0
 16  4  1  0  0  0  0
 17 23  1  0  0  0  0
 17 16  2  0  0  0  0
 18 17  1  0  0  0  0
 19 18  2  0  0  0  0
 19 21  1  0  0  0  0
 20 19  1  0  0  0  0
 21 22  2  0  0  0  0
 22 16  1  0  0  0  0
 22 26  1  0  0  0  0
 24 18  1  0  0  0  0
 25 21  1  0  0  0  0
 28 31  1  0  0  0  0
 28 27  2  0  0  0  0
 29 28  1  0  0  0  0
 30 29  1  0  0  0  0
 31 32  1  0  0  0  0
 32 37  1  0  0  0  0
 32 33  2  0  0  0  0
 33 38  1  0  0  0  0
 34 33  1  0  0  0  0
 35 34  2  0  0  0  0
 36 31  2  0  0  0  0
 36 35  1  0  0  0  0
 39 35  1  0  0  0  0
 40 36  1  0  0  0  0
M  END
>  <MODEL>
22

>  <REMARK>
 VINA RESULT:    -4.759      1.401      1.630
 INTER + INTRA:          -6.191
 INTER:                  -6.664
 INTRA:                   0.473
 UNBOUND:                -0.597
  Name = 
  3 active torsions:
  status: ('A' for Active; 'I' for Inactive)
    1  A    between atoms: C_2  and  C_17
    2  A    between atoms: N_3  and  C_4
    3  A    between atoms: N_7  and  C_8
                            x       y       z     vdW  Elec       q    Type
                         _______ _______ _______ _____ _____    ______ ____

>  <TORSDO>
F 3

$$$$
=
 OpenBabel07192307433D

 40 42  0  0  0  0  0  0  0  0999 V2000
    5.5750    6.3100   18.2200 C   0  0  0  0  0  0  0  0  0  0  0  0
    6.7520    6.2690   19.2110 C   0  0  0  0  0  0  0  0  0  0  0  0
    8.0670    6.6970   18.5670 C   0  0  0  0  0  0  0  0  0  0  0  0
    7.8650    7.9150   17.7870 N   0  0  0  0  0  0  0  0  0  0  0  0
    6.8580    7.8610   16.7160 C   0  0  0  0  0  0  0  0  0  0  0  0
    6.0350    6.5750   16.7830 C   0  0  0  0  0  0  0  0  0  0  0  0
    4.9120    7.1330   18.5200 H   0  0  0  0  0  0  0  0  0  0  0  0
    6.5230    6.9380   20.0510 H   0  0  0  0  0  0  0  0  0  0  0  0
    6.8820    5.2710   19.6470 H   0  0  0  0  0  0  0  0  0  0  0  0
    8.4190    5.9060   17.8920 H   0  0  0  0  0  0  0  0  0  0  0  0
    8.8570    6.7860   19.3200 H   0  0  0  0  0  0  0  0  0  0  0  0
    6.1660    8.7090   16.8040 H   0  0  0  0  0  0  0  0  0  0  0  0
    7.3490    7.9250   15.7380 H   0  0  0  0  0  0  0  0  0  0  0  0
    6.6260    5.7260   16.4150 H   0  0  0  0  0  0  0  0  0  0  0  0
    5.1770    6.6590   16.1050 H   0  0  0  0  0  0  0  0  0  0  0  0
    8.3340    9.1570   18.2020 C   0  0  0  0  0  0  0  0  0  0  0  0
    8.0360   10.3230   17.4730 C   0  0  0  0  0  0  0  0  0  0  0  0
    8.4990   11.5860   17.8640 C   0  0  0  0  0  0  0  0  0  0  0  0
    9.2800   11.7090   19.0050 C   0  0  0  0  0  0  0  0  0  0  0  0
    9.8530   13.2550   19.4930 Cl  0  0  0  0  0  0  0  0  0  0  0  0
    9.5960   10.5820   19.7510 C   0  0  0  0  0  0  0  0  0  0  0  0
    9.1270    9.3240   19.3490 C   0  0  0  0  0  0  0  0  0  0  0  0
    7.4490   10.2650   16.5600 H   0  0  0  0  0  0  0  0  0  0  0  0
    8.2500   12.4590   17.2670 H   0  0  0  0  0  0  0  0  0  0  0  0
   10.2000   10.6680   20.6500 H   0  0  0  0  0  0  0  0  0  0  0  0
    9.3790    8.4790   19.9820 H   0  0  0  0  0  0  0  0  0  0  0  0
    2.9060    6.0990   19.1450 O   0  0  0  0  0  0  0  0  0  0  0  0
    3.4740    5.0940   18.7330 C   0  0  0  0  0  0  0  0  0  0  0  0
    4.7820    5.0830   18.2910 N   0  0  0  0  0  0  0  0  0  0  0  0
    5.2100    4.2130   18.0100 H   0  0  0  0  0  0  0  0  0  0  0  0
    2.7540    3.7930   18.7190 C   0  0  0  0  0  0  0  0  0  0  0  0
    3.5060    2.6280   18.5680 C   0  0  0  0  0  0  0  0  0  0  0  0
    2.8370    1.4190   18.5590 C   0  0  0  0  0  0  0  0  0  0  0  0
    1.4990    1.3040   18.6970 N   0  0  0  0  0  0  0  0  0  0  0  0
    0.7990    2.4460   18.8640 C   0  0  0  0  0  0  0  0  0  0  0  0
    1.3720    3.7060   18.8840 C   0  0  0  0  0  0  0  0  0  0  0  0
    4.5850    2.6640   18.4570 H   0  0  0  0  0  0  0  0  0  0  0  0
    3.3750    0.4820   18.4390 H   0  0  0  0  0  0  0  0  0  0  0  0
   -0.2730    2.3150   18.9930 H   0  0  0  0  0  0  0  0  0  0  0  0
    0.7500    4.5740   19.0560 H   0  0  0  0  0  0  0  0  0  0  0  0
  1 29  1  0  0  0  0
  1  7  1  0  0  0  0
  1  2  1  0  0  0  0
  2  9  1  0  0  0  0
  2  8  1  0  0  0  0
  3  2  1  0  0  0  0
  3 11  1  0  0  0  0
  4 16  1  0  0  0  0
  4  3  1  0  0  0  0
  5  6  1  0  0  0  0
  5 12  1  0  0  0  0
  5  4  1  0  0  0  0
  6  1  1  0  0  0  0
 10  3  1  0  0  0  0
 13  5  1  0  0  0  0
 14  6  1  0  0  0  0
 15  6  1  0  0  0  0
 16 22  1  0  0  0  0
 17 18  1  0  0  0  0
 17 16  2  0  0  0  0
 18 19  2  0  0  0  0
 19 20  1  0  0  0  0
 19 21  1  0  0  0  0
 21 25  1  0  0  0  0
 22 21  2  0  0  0  0
 22 26  1  0  0  0  0
 23 17  1  0  0  0  0
 24 18  1  0  0  0  0
 28 27  2  0  0  0  0
 29 28  1  0  0  0  0
 30 29  1  0  0  0  0
 31 28  1  0  0  0  0
 31 36  1  0  0  0  0
 32 31  2  0  0  0  0
 33 32  1  0  0  0  0
 33 34  2  0  0  0  0
 34 35  1  0  0  0  0
 35 36  2  0  0  0  0
 35 39  1  0  0  0  0
 36 40  1  0  0  0  0
 37 32  1  0  0  0  0
 38 33  1  0  0  0  0
M  END
>  <MODEL>
23

>  <REMARK>
 VINA RESULT:    -4.634      4.889      6.924
 INTER + INTRA:          -6.045
 INTER:                  -5.419
 INTRA:                  -0.626
 UNBOUND:                -0.597
  Name = 
  3 active torsions:
  status: ('A' for Active; 'I' for Inactive)
    1  A    between atoms: C_2  and  C_17
    2  A    between atoms: N_3  and  C_4
    3  A    between atoms: N_7  and  C_8
                            x       y       z     vdW  Elec       q    Type
                         _______ _______ _______ _____ _____    ______ ____

>  <TORSDO>
F 3

$$$$
=
 OpenBabel07192307433D

 40 42  0  0  0  0  0  0  0  0999 V2000
    1.9530   13.3440   20.0830 C   0  0  0  0  0  0  0  0  0  0  0  0
    0.9100   14.4680   19.9560 C   0  0  0  0  0  0  0  0  0  0  0  0
   -0.4370   13.9540   19.4560 C   0  0  0  0  0  0  0  0  0  0  0  0
   -0.8110   12.7460   20.1860 N   0  0  0  0  0  0  0  0  0  0  0  0
    0.1300   11.6160   20.1290 C   0  0  0  0  0  0  0  0  0  0  0  0
    1.4580   12.0210   19.4900 C   0  0  0  0  0  0  0  0  0  0  0  0
    2.1470   13.1840   21.1520 H   0  0  0  0  0  0  0  0  0  0  0  0
    0.7780   14.9340   20.9420 H   0  0  0  0  0  0  0  0  0  0  0  0
    1.2520   15.2680   19.2880 H   0  0  0  0  0  0  0  0  0  0  0  0
   -0.3610   13.7070   18.3890 H   0  0  0  0  0  0  0  0  0  0  0  0
   -1.1940   14.7430   19.5000 H   0  0  0  0  0  0  0  0  0  0  0  0
    0.3420   11.2480   21.1420 H   0  0  0  0  0  0  0  0  0  0  0  0
   -0.3100   10.7920   19.5560 H   0  0  0  0  0  0  0  0  0  0  0  0
    1.3420   12.1170   18.4020 H   0  0  0  0  0  0  0  0  0  0  0  0
    2.1930   11.2220   19.6440 H   0  0  0  0  0  0  0  0  0  0  0  0
   -1.8160   12.7310   21.1470 C   0  0  0  0  0  0  0  0  0  0  0  0
   -3.0810   13.2870   20.8790 C   0  0  0  0  0  0  0  0  0  0  0  0
   -4.1100   13.2920   21.8300 C   0  0  0  0  0  0  0  0  0  0  0  0
   -3.8910   12.7360   23.0830 C   0  0  0  0  0  0  0  0  0  0  0  0
   -5.1470   12.7370   24.2560 Cl  0  0  0  0  0  0  0  0  0  0  0  0
   -2.6560   12.1780   23.3860 C   0  0  0  0  0  0  0  0  0  0  0  0
   -1.6340   12.1810   22.4260 C   0  0  0  0  0  0  0  0  0  0  0  0
   -3.2840   13.7530   19.9190 H   0  0  0  0  0  0  0  0  0  0  0  0
   -5.0690   13.7370   21.5820 H   0  0  0  0  0  0  0  0  0  0  0  0
   -2.4760   11.7340   24.3600 H   0  0  0  0  0  0  0  0  0  0  0  0
   -0.6970   11.7080   22.7040 H   0  0  0  0  0  0  0  0  0  0  0  0
    4.0500   14.7490   21.3710 O   0  0  0  0  0  0  0  0  0  0  0  0
    4.1980   14.3960   20.2070 C   0  0  0  0  0  0  0  0  0  0  0  0
    3.2270   13.7360   19.4790 N   0  0  0  0  0  0  0  0  0  0  0  0
    3.3900   13.5150   18.5070 H   0  0  0  0  0  0  0  0  0  0  0  0
    5.4680   14.7030   19.4980 C   0  0  0  0  0  0  0  0  0  0  0  0
    6.6180   14.8930   20.2650 C   0  0  0  0  0  0  0  0  0  0  0  0
    7.8000   15.1740   19.6060 C   0  0  0  0  0  0  0  0  0  0  0  0
    7.9020   15.2670   18.2630 N   0  0  0  0  0  0  0  0  0  0  0  0
    6.7790   15.0560   17.5450 C   0  0  0  0  0  0  0  0  0  0  0  0
    5.5470   14.7720   18.1080 C   0  0  0  0  0  0  0  0  0  0  0  0
    6.5910   14.8250   21.3480 H   0  0  0  0  0  0  0  0  0  0  0  0
    8.7230   15.3350   20.1560 H   0  0  0  0  0  0  0  0  0  0  0  0
    6.9030   15.1180   16.4670 H   0  0  0  0  0  0  0  0  0  0  0  0
    4.6960   14.5820   17.4660 H   0  0  0  0  0  0  0  0  0  0  0  0
  1  7  1  0  0  0  0
  2  1  1  0  0  0  0
  2  8  1  0  0  0  0
  3 11  1  0  0  0  0
  3  2  1  0  0  0  0
  3  4  1  0  0  0  0
  4 16  1  0  0  0  0
  5  4  1  0  0  0  0
  5 12  1  0  0  0  0
  6 15  1  0  0  0  0
  6  1  1  0  0  0  0
  6  5  1  0  0  0  0
  9  2  1  0  0  0  0
 10  3  1  0  0  0  0
 13  5  1  0  0  0  0
 14  6  1  0  0  0  0
 16 22  1  0  0  0  0
 17 16  2  0  0  0  0
 17 18  1  0  0  0  0
 18 19  2  0  0  0  0
 19 21  1  0  0  0  0
 19 20  1  0  0  0  0
 21 25  1  0  0  0  0
 22 26  1  0  0  0  0
 22 21  2  0  0  0  0
 23 17  1  0  0  0  0
 24 18  1  0  0  0  0
 28 27  2  0  0  0  0
 29  1  1  0  0  0  0
 29 28  1  0  0  0  0
 30 29  1  0  0  0  0
 31 28  1  0  0  0  0
 31 32  1  0  0  0  0
 32 37  1  0  0  0  0
 33 38  1  0  0  0  0
 33 32  2  0  0  0  0
 34 33  1  0  0  0  0
 35 36  1  0  0  0  0
 35 34  2  0  0  0  0
 36 31  2  0  0  0  0
 39 35  1  0  0  0  0
 40 36  1  0  0  0  0
M  END
>  <MODEL>
24

>  <REMARK>
 VINA RESULT:    -4.209      8.225     11.079
 INTER + INTRA:          -5.545
 INTER:                  -4.954
 INTRA:                  -0.591
 UNBOUND:                -0.597
  Name = 
  3 active torsions:
  status: ('A' for Active; 'I' for Inactive)
    1  A    between atoms: C_2  and  C_17
    2  A    between atoms: N_3  and  C_4
    3  A    between atoms: N_7  and  C_8
                            x       y       z     vdW  Elec       q    Type
                         _______ _______ _______ _____ _____    ______ ____

>  <TORSDO>
F 3

$$$$
=
 OpenBabel07192307433D

 40 42  0  0  0  0  0  0  0  0999 V2000
    1.6980    8.1500   20.3720 C   0  0  0  0  0  0  0  0  0  0  0  0
    0.9260    6.9810   21.0090 C   0  0  0  0  0  0  0  0  0  0  0  0
    0.8040    5.7870   20.0680 C   0  0  0  0  0  0  0  0  0  0  0  0
    2.0980    5.5040   19.4530 N   0  0  0  0  0  0  0  0  0  0  0  0
    2.7230    6.5930   18.6870 C   0  0  0  0  0  0  0  0  0  0  0  0
    1.9840    7.9160   18.8850 C   0  0  0  0  0  0  0  0  0  0  0  0
    2.6620    8.2390   20.8910 H   0  0  0  0  0  0  0  0  0  0  0  0
    1.4520    6.6730   21.9220 H   0  0  0  0  0  0  0  0  0  0  0  0
   -0.0790    7.2840   21.3270 H   0  0  0  0  0  0  0  0  0  0  0  0
    0.0840    6.0190   19.2730 H   0  0  0  0  0  0  0  0  0  0  0  0
    0.3690    4.9270   20.5880 H   0  0  0  0  0  0  0  0  0  0  0  0
    3.7620    6.7360   19.0120 H   0  0  0  0  0  0  0  0  0  0  0  0
    2.7340    6.3420   17.6210 H   0  0  0  0  0  0  0  0  0  0  0  0
    1.0440    7.9140   18.3170 H   0  0  0  0  0  0  0  0  0  0  0  0
    2.5860    8.7330   18.4670 H   0  0  0  0  0  0  0  0  0  0  0  0
    2.8730    4.4060   19.8100 C   0  0  0  0  0  0  0  0  0  0  0  0
    4.0650    4.1080   19.1220 C   0  0  0  0  0  0  0  0  0  0  0  0
    4.8630    3.0050   19.4560 C   0  0  0  0  0  0  0  0  0  0  0  0
    4.4800    2.1700   20.4960 C   0  0  0  0  0  0  0  0  0  0  0  0
    5.4520    0.8150   20.9130 Cl  0  0  0  0  0  0  0  0  0  0  0  0
    3.3110    2.4310   21.1990 C   0  0  0  0  0  0  0  0  0  0  0  0
    2.5210    3.5350   20.8540 C   0  0  0  0  0  0  0  0  0  0  0  0
    4.3850    4.7230   18.2860 H   0  0  0  0  0  0  0  0  0  0  0  0
    5.7710    2.8090   18.8940 H   0  0  0  0  0  0  0  0  0  0  0  0
    3.0070    1.7870   22.0190 H   0  0  0  0  0  0  0  0  0  0  0  0
    1.6330    3.7110   21.4520 H   0  0  0  0  0  0  0  0  0  0  0  0
    0.9610    9.2800   22.8630 O   0  0  0  0  0  0  0  0  0  0  0  0
    0.7080    9.8940   21.8330 C   0  0  0  0  0  0  0  0  0  0  0  0
    0.9950    9.4180   20.5690 N   0  0  0  0  0  0  0  0  0  0  0  0
    0.7160    9.9480   19.7560 H   0  0  0  0  0  0  0  0  0  0  0  0
    0.0300   11.2150   21.9100 C   0  0  0  0  0  0  0  0  0  0  0  0
   -1.0060   11.3690   22.8320 C   0  0  0  0  0  0  0  0  0  0  0  0
   -1.6330   12.5980   22.9050 C   0  0  0  0  0  0  0  0  0  0  0  0
   -1.2940   13.6570   22.1400 N   0  0  0  0  0  0  0  0  0  0  0  0
   -0.2740   13.4870   21.2730 C   0  0  0  0  0  0  0  0  0  0  0  0
    0.4170   12.2970   21.1200 C   0  0  0  0  0  0  0  0  0  0  0  0
   -1.3150   10.5510   23.4730 H   0  0  0  0  0  0  0  0  0  0  0  0
   -2.4490   12.7700   23.6030 H   0  0  0  0  0  0  0  0  0  0  0  0
   -0.0130   14.3660   20.6890 H   0  0  0  0  0  0  0  0  0  0  0  0
    1.2470   12.2450   20.4270 H   0  0  0  0  0  0  0  0  0  0  0  0
  1 29  1  0  0  0  0
  1  7  1  0  0  0  0
  1  2  1  0  0  0  0
  2  9  1  0  0  0  0
  2  8  1  0  0  0  0
  3 11  1  0  0  0  0
  3  2  1  0  0  0  0
  4 16  1  0  0  0  0
  4  3  1  0  0  0  0
  5  6  1  0  0  0  0
  5 12  1  0  0  0  0
  5  4  1  0  0  0  0
  6  1  1  0  0  0  0
 10  3  1  0  0  0  0
 13  5  1  0  0  0  0
 14  6  1  0  0  0  0
 15  6  1  0  0  0  0
 16 22  1  0  0  0  0
 17 18  1  0  0  0  0
 17 16  2  0  0  0  0
 18 19  2  0  0  0  0
 19 20  1  0  0  0  0
 19 21  1  0  0  0  0
 21 25  1  0  0  0  0
 22 21  2  0  0  0  0
 22 26  1  0  0  0  0
 23 17  1  0  0  0  0
 24 18  1  0  0  0  0
 28 31  1  0  0  0  0
 28 27  2  0  0  0  0
 29 28  1  0  0  0  0
 30 29  1  0  0  0  0
 31 32  1  0  0  0  0
 32 33  2  0  0  0  0
 32 37  1  0  0  0  0
 33 38  1  0  0  0  0
 34 33  1  0  0  0  0
 35 34  2  0  0  0  0
 36 35  1  0  0  0  0
 36 31  2  0  0  0  0
 39 35  1  0  0  0  0
 40 36  1  0  0  0  0
M  END
>  <MODEL>
25

>  <REMARK>
 VINA RESULT:    -4.046      3.846      4.887
 INTER + INTRA:          -5.353
 INTER:                  -5.123
 INTRA:                  -0.230
 UNBOUND:                -0.597
  Name = 
  3 active torsions:
  status: ('A' for Active; 'I' for Inactive)
    1  A    between atoms: C_2  and  C_17
    2  A    between atoms: N_3  and  C_4
    3  A    between atoms: N_7  and  C_8
                            x       y       z     vdW  Elec       q    Type
                         _______ _______ _______ _____ _____    ______ ____

>  <TORSDO>
F 3

$$$$
=
 OpenBabel07192307433D

 40 42  0  0  0  0  0  0  0  0999 V2000
    1.9430    7.8780   19.5530 C   0  0  0  0  0  0  0  0  0  0  0  0
    1.4270    7.0410   20.7370 C   0  0  0  0  0  0  0  0  0  0  0  0
    0.9810    5.6460   20.3090 C   0  0  0  0  0  0  0  0  0  0  0  0
    1.9830    5.0510   19.4300 N   0  0  0  0  0  0  0  0  0  0  0  0
    2.3160    5.7920   18.2040 C   0  0  0  0  0  0  0  0  0  0  0  0
    1.7000    7.1900   18.2050 C   0  0  0  0  0  0  0  0  0  0  0  0
    3.0270    8.0040   19.6770 H   0  0  0  0  0  0  0  0  0  0  0  0
    2.2320    6.9550   21.4790 H   0  0  0  0  0  0  0  0  0  0  0  0
    0.5940    7.5350   21.2520 H   0  0  0  0  0  0  0  0  0  0  0  0
    0.0330    5.7170   19.7600 H   0  0  0  0  0  0  0  0  0  0  0  0
    0.7440    5.0300   21.1830 H   0  0  0  0  0  0  0  0  0  0  0  0
    3.4050    5.9040   18.1130 H   0  0  0  0  0  0  0  0  0  0  0  0
    1.9590    5.2410   17.3260 H   0  0  0  0  0  0  0  0  0  0  0  0
    0.6220    7.1300   18.0030 H   0  0  0  0  0  0  0  0  0  0  0  0
    2.1280    7.7750   17.3820 H   0  0  0  0  0  0  0  0  0  0  0  0
    2.8260    4.0240   19.8420 C   0  0  0  0  0  0  0  0  0  0  0  0
    2.4930    3.2110   20.9410 C   0  0  0  0  0  0  0  0  0  0  0  0
    3.3260    2.1740   21.3810 C   0  0  0  0  0  0  0  0  0  0  0  0
    4.5230    1.9280   20.7240 C   0  0  0  0  0  0  0  0  0  0  0  0
    5.5520    0.6580   21.2560 Cl  0  0  0  0  0  0  0  0  0  0  0  0
    4.8880    2.7080   19.6350 C   0  0  0  0  0  0  0  0  0  0  0  0
    4.0470    3.7440   19.2050 C   0  0  0  0  0  0  0  0  0  0  0  0
    1.5770    3.3880   21.4970 H   0  0  0  0  0  0  0  0  0  0  0  0
    3.0320    1.5750   22.2380 H   0  0  0  0  0  0  0  0  0  0  0  0
    5.8190    2.5200   19.1080 H   0  0  0  0  0  0  0  0  0  0  0  0
    4.3640    4.3060   18.3330 H   0  0  0  0  0  0  0  0  0  0  0  0
    2.5220    9.9610   17.7220 O   0  0  0  0  0  0  0  0  0  0  0  0
    1.6900   10.1550   18.6000 C   0  0  0  0  0  0  0  0  0  0  0  0
    1.3590    9.2190   19.5600 N   0  0  0  0  0  0  0  0  0  0  0  0
    0.7020    9.4570   20.2890 H   0  0  0  0  0  0  0  0  0  0  0  0
    1.0000   11.4700   18.6850 C   0  0  0  0  0  0  0  0  0  0  0  0
    1.7720   12.6260   18.5690 C   0  0  0  0  0  0  0  0  0  0  0  0
    1.1290   13.8470   18.6440 C   0  0  0  0  0  0  0  0  0  0  0  0
   -0.2040   13.9800   18.8140 N   0  0  0  0  0  0  0  0  0  0  0  0
   -0.9290   12.8450   18.9000 C   0  0  0  0  0  0  0  0  0  0  0  0
   -0.3820   11.5750   18.8410 C   0  0  0  0  0  0  0  0  0  0  0  0
    2.8460   12.5740   18.4280 H   0  0  0  0  0  0  0  0  0  0  0  0
    1.6840   14.7780   18.5650 H   0  0  0  0  0  0  0  0  0  0  0  0
   -2.0000   12.9910   19.0150 H   0  0  0  0  0  0  0  0  0  0  0  0
   -1.0320   10.7100   18.8830 H   0  0  0  0  0  0  0  0  0  0  0  0
  1 29  1  0  0  0  0
  1  7  1  0  0  0  0
  1  2  1  0  0  0  0
  2  9  1  0  0  0  0
  2  8  1  0  0  0  0
  3  2  1  0  0  0  0
  3 11  1  0  0  0  0
  4 16  1  0  0  0  0
  4  3  1  0  0  0  0
  5  6  1  0  0  0  0
  5  4  1  0  0  0  0
  6  1  1  0  0  0  0
 10  3  1  0  0  0  0
 12  5  1  0  0  0  0
 13  5  1  0  0  0  0
 14  6  1  0  0  0  0
 15  6  1  0  0  0  0
 16 17  1  0  0  0  0
 17 18  2  0  0  0  0
 17 23  1  0  0  0  0
 18 24  1  0  0  0  0
 19 20  1  0  0  0  0
 19 18  1  0  0  0  0
 21 19  2  0  0  0  0
 22 21  1  0  0  0  0
 22 16  2  0  0  0  0
 25 21  1  0  0  0  0
 26 22  1  0  0  0  0
 27 28  2  0  0  0  0
 28 31  1  0  0  0  0
 28 29  1  0  0  0  0
 29 30  1  0  0  0  0
 31 36  1  0  0  0  0
 32 33  1  0  0  0  0
 32 31  2  0  0  0  0
 33 34  2  0  0  0  0
 34 35  1  0  0  0  0
 35 39  1  0  0  0  0
 36 40  1  0  0  0  0
 36 35  2  0  0  0  0
 37 32  1  0  0  0  0
 38 33  1  0  0  0  0
M  END
>  <MODEL>
26

>  <REMARK>
 VINA RESULT:    -3.957      3.962      5.025
 INTER + INTRA:          -5.248
 INTER:                  -5.039
 INTRA:                  -0.209
 UNBOUND:                -0.597
  Name = 
  3 active torsions:
  status: ('A' for Active; 'I' for Inactive)
    1  A    between atoms: C_2  and  C_17
    2  A    between atoms: N_3  and  C_4
    3  A    between atoms: N_7  and  C_8
                            x       y       z     vdW  Elec       q    Type
                         _______ _______ _______ _____ _____    ______ ____

>  <TORSDO>
F 3

$$$$
=
 OpenBabel07192307433D

 40 42  0  0  0  0  0  0  0  0999 V2000
    1.2690    8.1710   18.5850 C   0  0  0  0  0  0  0  0  0  0  0  0
    1.2740    8.2460   20.1220 C   0  0  0  0  0  0  0  0  0  0  0  0
    1.5810    9.6500   20.6320 C   0  0  0  0  0  0  0  0  0  0  0  0
    0.7860   10.6310   19.8980 N   0  0  0  0  0  0  0  0  0  0  0  0
    0.9490   10.6580   18.4360 C   0  0  0  0  0  0  0  0  0  0  0  0
    1.7670    9.4670   17.9380 C   0  0  0  0  0  0  0  0  0  0  0  0
    0.2320    8.0080   18.2600 H   0  0  0  0  0  0  0  0  0  0  0  0
    0.2880    7.9320   20.4890 H   0  0  0  0  0  0  0  0  0  0  0  0
    1.9960    7.5460   20.5610 H   0  0  0  0  0  0  0  0  0  0  0  0
    2.6440    9.8740   20.4730 H   0  0  0  0  0  0  0  0  0  0  0  0
    1.4490    9.7060   21.7180 H   0  0  0  0  0  0  0  0  0  0  0  0
   -0.0330   10.6210   17.9450 H   0  0  0  0  0  0  0  0  0  0  0  0
    1.4440   11.5880   18.1330 H   0  0  0  0  0  0  0  0  0  0  0  0
    2.8310    9.6160   18.1650 H   0  0  0  0  0  0  0  0  0  0  0  0
    1.6980    9.4120   16.8450 H   0  0  0  0  0  0  0  0  0  0  0  0
   -0.3000   11.2900   20.4620 C   0  0  0  0  0  0  0  0  0  0  0  0
   -0.3800   11.4940   21.8530 C   0  0  0  0  0  0  0  0  0  0  0  0
   -1.4660   12.1480   22.4490 C   0  0  0  0  0  0  0  0  0  0  0  0
   -2.5060   12.6160   21.6580 C   0  0  0  0  0  0  0  0  0  0  0  0
   -3.8420   13.4210   22.3810 Cl  0  0  0  0  0  0  0  0  0  0  0  0
   -2.4640   12.4340   20.2820 C   0  0  0  0  0  0  0  0  0  0  0  0
   -1.3730   11.7770   19.6980 C   0  0  0  0  0  0  0  0  0  0  0  0
    0.4010   11.1200   22.5090 H   0  0  0  0  0  0  0  0  0  0  0  0
   -1.4890   12.2780   23.5280 H   0  0  0  0  0  0  0  0  0  0  0  0
   -3.2690   12.8030   19.6530 H   0  0  0  0  0  0  0  0  0  0  0  0
   -1.3760   11.6850   18.6160 H   0  0  0  0  0  0  0  0  0  0  0  0
    4.0490    8.1450   18.0420 O   0  0  0  0  0  0  0  0  0  0  0  0
    3.4060    7.1110   17.9030 C   0  0  0  0  0  0  0  0  0  0  0  0
    2.0440    7.0250   18.1090 N   0  0  0  0  0  0  0  0  0  0  0  0
    1.5620    6.1560   17.9290 H   0  0  0  0  0  0  0  0  0  0  0  0
    4.0940    5.8690   17.4610 C   0  0  0  0  0  0  0  0  0  0  0  0
    3.3700    4.6770   17.4760 C   0  0  0  0  0  0  0  0  0  0  0  0
    4.0080    3.5240   17.0610 C   0  0  0  0  0  0  0  0  0  0  0  0
    5.2890    3.4900   16.6360 N   0  0  0  0  0  0  0  0  0  0  0  0
    5.9580    4.6620   16.6110 C   0  0  0  0  0  0  0  0  0  0  0  0
    5.4130    5.8700   17.0070 C   0  0  0  0  0  0  0  0  0  0  0  0
    2.3360    4.6500   17.8050 H   0  0  0  0  0  0  0  0  0  0  0  0
    3.4910    2.5670   17.0580 H   0  0  0  0  0  0  0  0  0  0  0  0
    6.9800    4.6010   16.2430 H   0  0  0  0  0  0  0  0  0  0  0  0
    6.0010    6.7750   16.9270 H   0  0  0  0  0  0  0  0  0  0  0  0
  1  2  1  0  0  0  0
  2  8  1  0  0  0  0
  2  9  1  0  0  0  0
  2  3  1  0  0  0  0
  3 11  1  0  0  0  0
  4 16  1  0  0  0  0
  4  3  1  0  0  0  0
  5  4  1  0  0  0  0
  6 14  1  0  0  0  0
  6  5  1  0  0  0  0
  6  1  1  0  0  0  0
  7  1  1  0  0  0  0
 10  3  1  0  0  0  0
 12  5  1  0  0  0  0
 13  5  1  0  0  0  0
 15  6  1  0  0  0  0
 16 17  1  0  0  0  0
 17 18  2  0  0  0  0
 17 23  1  0  0  0  0
 18 24  1  0  0  0  0
 19 20  1  0  0  0  0
 19 18  1  0  0  0  0
 21 19  2  0  0  0  0
 22 21  1  0  0  0  0
 22 16  2  0  0  0  0
 25 21  1  0  0  0  0
 26 22  1  0  0  0  0
 28 27  2  0  0  0  0
 28 29  1  0  0  0  0
 29  1  1  0  0  0  0
 30 29  1  0  0  0  0
 31 32  1  0  0  0  0
 31 28  1  0  0  0  0
 32 37  1  0  0  0  0
 33 32  2  0  0  0  0
 34 33  1  0  0  0  0
 35 34  2  0  0  0  0
 35 36  1  0  0  0  0
 36 31  2  0  0  0  0
 38 33  1  0  0  0  0
 39 35  1  0  0  0  0
 40 36  1  0  0  0  0
M  END
>  <MODEL>
27

>  <REMARK>
 VINA RESULT:    -3.922      4.239      9.251
 INTER + INTRA:          -5.207
 INTER:                  -5.289
 INTRA:                   0.082
 UNBOUND:                -0.597
  Name = 
  3 active torsions:
  status: ('A' for Active; 'I' for Inactive)
    1  A    between atoms: C_2  and  C_17
    2  A    between atoms: N_3  and  C_4
    3  A    between atoms: N_7  and  C_8
                            x       y       z     vdW  Elec       q    Type
                         _______ _______ _______ _____ _____    ______ ____

>  <TORSDO>
F 3

$$$$
=
 OpenBabel07192307433D

 40 42  0  0  0  0  0  0  0  0999 V2000
    0.3140   10.7280   19.8550 C   0  0  0  0  0  0  0  0  0  0  0  0
   -0.2650    9.3890   19.3620 C   0  0  0  0  0  0  0  0  0  0  0  0
    0.3330    8.9570   18.0270 C   0  0  0  0  0  0  0  0  0  0  0  0
    1.7840    9.1080   18.0590 N   0  0  0  0  0  0  0  0  0  0  0  0
    2.3070   10.4530   18.3490 C   0  0  0  0  0  0  0  0  0  0  0  0
    1.1980   11.4020   18.8000 C   0  0  0  0  0  0  0  0  0  0  0  0
    0.9380   10.5200   20.7350 H   0  0  0  0  0  0  0  0  0  0  0  0
   -0.0590    8.6220   20.1190 H   0  0  0  0  0  0  0  0  0  0  0  0
   -1.3560    9.4310   19.2630 H   0  0  0  0  0  0  0  0  0  0  0  0
   -0.0660    9.5910   17.2240 H   0  0  0  0  0  0  0  0  0  0  0  0
    0.0040    7.9460   17.7650 H   0  0  0  0  0  0  0  0  0  0  0  0
    3.0550   10.4040   19.1510 H   0  0  0  0  0  0  0  0  0  0  0  0
    2.7940   10.8650   17.4580 H   0  0  0  0  0  0  0  0  0  0  0  0
    0.5880   11.7090   17.9400 H   0  0  0  0  0  0  0  0  0  0  0  0
    1.6460   12.3220   19.1940 H   0  0  0  0  0  0  0  0  0  0  0  0
    2.6500    8.0230   18.1390 C   0  0  0  0  0  0  0  0  0  0  0  0
    3.7080    7.8720   17.2220 C   0  0  0  0  0  0  0  0  0  0  0  0
    4.5910    6.7860   17.2750 C   0  0  0  0  0  0  0  0  0  0  0  0
    4.4310    5.8170   18.2560 C   0  0  0  0  0  0  0  0  0  0  0  0
    5.5100    4.4810   18.3300 Cl  0  0  0  0  0  0  0  0  0  0  0  0
    3.4000    5.9300   19.1790 C   0  0  0  0  0  0  0  0  0  0  0  0
    2.5220    7.0210   19.1150 C   0  0  0  0  0  0  0  0  0  0  0  0
    3.8500    8.5950   16.4240 H   0  0  0  0  0  0  0  0  0  0  0  0
    5.3900    6.7060   16.5430 H   0  0  0  0  0  0  0  0  0  0  0  0
    3.2710    5.1820   19.9560 H   0  0  0  0  0  0  0  0  0  0  0  0
    1.7500    7.0770   19.8750 H   0  0  0  0  0  0  0  0  0  0  0  0
   -2.0470   11.3560   18.4210 O   0  0  0  0  0  0  0  0  0  0  0  0
   -1.8760   11.8480   19.5300 C   0  0  0  0  0  0  0  0  0  0  0  0
   -0.7470   11.6330   20.2950 N   0  0  0  0  0  0  0  0  0  0  0  0
   -0.6420   12.1070   21.1810 H   0  0  0  0  0  0  0  0  0  0  0  0
   -2.9060   12.7540   20.1010 C   0  0  0  0  0  0  0  0  0  0  0  0
   -2.4770   13.8310   20.8760 C   0  0  0  0  0  0  0  0  0  0  0  0
   -3.4350   14.6760   21.4040 C   0  0  0  0  0  0  0  0  0  0  0  0
   -4.7610   14.5190   21.2040 N   0  0  0  0  0  0  0  0  0  0  0  0
   -5.1470   13.4820   20.4320 C   0  0  0  0  0  0  0  0  0  0  0  0
   -4.2690   12.5780   19.8600 C   0  0  0  0  0  0  0  0  0  0  0  0
   -1.4220   14.0050   21.0650 H   0  0  0  0  0  0  0  0  0  0  0  0
   -3.1550   15.5270   22.0190 H   0  0  0  0  0  0  0  0  0  0  0  0
   -6.2190   13.3980   20.2740 H   0  0  0  0  0  0  0  0  0  0  0  0
   -4.6500   11.7890   19.2240 H   0  0  0  0  0  0  0  0  0  0  0  0
  1 29  1  0  0  0  0
  1  7  1  0  0  0  0
  2  1  1  0  0  0  0
  2  8  1  0  0  0  0
  3  4  1  0  0  0  0
  3  2  1  0  0  0  0
  4 16  1  0  0  0  0
  4  5  1  0  0  0  0
  5  6  1  0  0  0  0
  5 12  1  0  0  0  0
  6 15  1  0  0  0  0
  6  1  1  0  0  0  0
  9  2  1  0  0  0  0
 10  3  1  0  0  0  0
 11  3  1  0  0  0  0
 13  5  1  0  0  0  0
 14  6  1  0  0  0  0
 16 22  1  0  0  0  0
 17 18  1  0  0  0  0
 17 16  2  0  0  0  0
 18 19  2  0  0  0  0
 19 20  1  0  0  0  0
 19 21  1  0  0  0  0
 21 25  1  0  0  0  0
 22 21  2  0  0  0  0
 22 26  1  0  0  0  0
 23 17  1  0  0  0  0
 24 18  1  0  0  0  0
 27 28  2  0  0  0  0
 28 31  1  0  0  0  0
 28 29  1  0  0  0  0
 29 30  1  0  0  0  0
 31 32  1  0  0  0  0
 32 37  1  0  0  0  0
 32 33  2  0  0  0  0
 33 38  1  0  0  0  0
 34 33  1  0  0  0  0
 35 34  2  0  0  0  0
 36 31  2  0  0  0  0
 36 35  1  0  0  0  0
 39 35  1  0  0  0  0
 40 36  1  0  0  0  0
M  END
>  <MODEL>
28

>  <REMARK>
 VINA RESULT:    -3.915      3.295      5.608
 INTER + INTRA:          -5.199
 INTER:                  -5.180
 INTRA:                  -0.019
 UNBOUND:                -0.597
  Name = 
  3 active torsions:
  status: ('A' for Active; 'I' for Inactive)
    1  A    between atoms: C_2  and  C_17
    2  A    between atoms: N_3  and  C_4
    3  A    between atoms: N_7  and  C_8
                            x       y       z     vdW  Elec       q    Type
                         _______ _______ _______ _____ _____    ______ ____

>  <TORSDO>
F 3

$$$$
=
 OpenBabel07192307433D

 40 42  0  0  0  0  0  0  0  0999 V2000
    1.6670    8.8960   20.8120 C   0  0  0  0  0  0  0  0  0  0  0  0
    0.9270    7.7070   21.4510 C   0  0  0  0  0  0  0  0  0  0  0  0
    0.6210    6.6050   20.4400 C   0  0  0  0  0  0  0  0  0  0  0  0
    1.8060    6.3260   19.6340 N   0  0  0  0  0  0  0  0  0  0  0  0
    2.3790    7.4540   18.8820 C   0  0  0  0  0  0  0  0  0  0  0  0
    1.7420    8.7820   19.2860 C   0  0  0  0  0  0  0  0  0  0  0  0
    2.6940    8.9000   21.2020 H   0  0  0  0  0  0  0  0  0  0  0  0
    1.5520    7.2990   22.2560 H   0  0  0  0  0  0  0  0  0  0  0  0
   -0.0110    8.0190   21.9260 H   0  0  0  0  0  0  0  0  0  0  0  0
   -0.1850    6.9350   19.7720 H   0  0  0  0  0  0  0  0  0  0  0  0
    0.2150    5.7210   20.9420 H   0  0  0  0  0  0  0  0  0  0  0  0
    3.4580    7.5260   19.0740 H   0  0  0  0  0  0  0  0  0  0  0  0
    2.2370    7.2970   17.8070 H   0  0  0  0  0  0  0  0  0  0  0  0
    0.7360    8.8680   18.8530 H   0  0  0  0  0  0  0  0  0  0  0  0
    2.3240    9.6080   18.8590 H   0  0  0  0  0  0  0  0  0  0  0  0
    2.5650    5.1720   19.7920 C   0  0  0  0  0  0  0  0  0  0  0  0
    2.1310    4.1300   20.6320 C   0  0  0  0  0  0  0  0  0  0  0  0
    2.8780    2.9590   20.8150 C   0  0  0  0  0  0  0  0  0  0  0  0
    4.0890    2.8060   20.1530 C   0  0  0  0  0  0  0  0  0  0  0  0
    5.0130    1.3720   20.3710 Cl  0  0  0  0  0  0  0  0  0  0  0  0
    4.5510    3.8110   19.3150 C   0  0  0  0  0  0  0  0  0  0  0  0
    3.7950    4.9790   19.1420 C   0  0  0  0  0  0  0  0  0  0  0  0
    1.2010    4.2220   21.1870 H   0  0  0  0  0  0  0  0  0  0  0  0
    2.5080    2.1820   21.4780 H   0  0  0  0  0  0  0  0  0  0  0  0
    5.4930    3.6980   18.7870 H   0  0  0  0  0  0  0  0  0  0  0  0
    4.1870    5.7220   18.4560 H   0  0  0  0  0  0  0  0  0  0  0  0
   -0.7760    9.9540   19.8450 O   0  0  0  0  0  0  0  0  0  0  0  0
   -0.1530   10.5790   20.6940 C   0  0  0  0  0  0  0  0  0  0  0  0
    1.0620   10.1680   21.2070 N   0  0  0  0  0  0  0  0  0  0  0  0
    1.5520   10.7520   21.8690 H   0  0  0  0  0  0  0  0  0  0  0  0
   -0.6890   11.8690   21.2030 C   0  0  0  0  0  0  0  0  0  0  0  0
   -0.8960   11.9980   22.5760 C   0  0  0  0  0  0  0  0  0  0  0  0
   -1.3910   13.1990   23.0490 C   0  0  0  0  0  0  0  0  0  0  0  0
   -1.6760   14.2540   22.2560 N   0  0  0  0  0  0  0  0  0  0  0  0
   -1.4440   14.1080   20.9340 C   0  0  0  0  0  0  0  0  0  0  0  0
   -0.9550   12.9480   20.3600 C   0  0  0  0  0  0  0  0  0  0  0  0
   -0.6800   11.1830   23.2580 H   0  0  0  0  0  0  0  0  0  0  0  0
   -1.5750   13.3510   24.1090 H   0  0  0  0  0  0  0  0  0  0  0  0
   -1.6650   14.9840   20.3290 H   0  0  0  0  0  0  0  0  0  0  0  0
   -0.7630   12.9170   19.2950 H   0  0  0  0  0  0  0  0  0  0  0  0
  1  7  1  0  0  0  0
  1 29  1  0  0  0  0
  1  2  1  0  0  0  0
  2  9  1  0  0  0  0
  2  8  1  0  0  0  0
  3 11  1  0  0  0  0
  3  2  1  0  0  0  0
  4 16  1  0  0  0  0
  4  3  1  0  0  0  0
  5 12  1  0  0  0  0
  5  6  1  0  0  0  0
  5  4  1  0  0  0  0
  6  1  1  0  0  0  0
 10  3  1  0  0  0  0
 13  5  1  0  0  0  0
 14  6  1  0  0  0  0
 15  6  1  0  0  0  0
 16 17  1  0  0  0  0
 17 18  2  0  0  0  0
 17 23  1  0  0  0  0
 18 24  1  0  0  0  0
 19 20  1  0  0  0  0
 19 18  1  0  0  0  0
 21 19  2  0  0  0  0
 22 21  1  0  0  0  0
 22 16  2  0  0  0  0
 25 21  1  0  0  0  0
 26 22  1  0  0  0  0
 27 28  2  0  0  0  0
 28 31  1  0  0  0  0
 28 29  1  0  0  0  0
 29 30  1  0  0  0  0
 31 32  1  0  0  0  0
 32 33  2  0  0  0  0
 32 37  1  0  0  0  0
 33 38  1  0  0  0  0
 34 33  1  0  0  0  0
 35 34  2  0  0  0  0
 36 35  1  0  0  0  0
 36 31  2  0  0  0  0
 39 35  1  0  0  0  0
 40 36  1  0  0  0  0
M  END
>  <MODEL>
29

>  <REMARK>
 VINA RESULT:    -3.878      3.692      5.036
 INTER + INTRA:          -5.155
 INTER:                  -5.067
 INTRA:                  -0.088
 UNBOUND:                -0.597
  Name = 
  3 active torsions:
  status: ('A' for Active; 'I' for Inactive)
    1  A    between atoms: C_2  and  C_17
    2  A    between atoms: N_3  and  C_4
    3  A    between atoms: N_7  and  C_8
                            x       y       z     vdW  Elec       q    Type
                         _______ _______ _______ _____ _____    ______ ____

>  <TORSDO>
F 3

$$$$
=
 OpenBabel07192307433D

 40 42  0  0  0  0  0  0  0  0999 V2000
    2.7330   13.8050   20.9520 C   0  0  0  0  0  0  0  0  0  0  0  0
    1.9730   15.0070   21.5410 C   0  0  0  0  0  0  0  0  0  0  0  0
    0.5570   15.1260   20.9840 C   0  0  0  0  0  0  0  0  0  0  0  0
   -0.0970   13.8210   21.0040 N   0  0  0  0  0  0  0  0  0  0  0  0
    0.5660   12.7330   20.2680 C   0  0  0  0  0  0  0  0  0  0  0  0
    1.9660   13.1370   19.8060 C   0  0  0  0  0  0  0  0  0  0  0  0
    2.8590   13.0620   21.7530 H   0  0  0  0  0  0  0  0  0  0  0  0
    1.9260   14.8890   22.6320 H   0  0  0  0  0  0  0  0  0  0  0  0
    2.5030   15.9500   21.3620 H   0  0  0  0  0  0  0  0  0  0  0  0
    0.6010   15.4780   19.9450 H   0  0  0  0  0  0  0  0  0  0  0  0
   -0.0030   15.9040   21.5130 H   0  0  0  0  0  0  0  0  0  0  0  0
    0.6650   11.8470   20.9090 H   0  0  0  0  0  0  0  0  0  0  0  0
   -0.0350   12.4530   19.3950 H   0  0  0  0  0  0  0  0  0  0  0  0
    1.9010   13.8200   18.9500 H   0  0  0  0  0  0  0  0  0  0  0  0
    2.4970   12.2490   19.4430 H   0  0  0  0  0  0  0  0  0  0  0  0
   -1.1020   13.5000   21.9100 C   0  0  0  0  0  0  0  0  0  0  0  0
   -1.8180   14.5080   22.5830 C   0  0  0  0  0  0  0  0  0  0  0  0
   -2.8310   14.2130   23.5050 C   0  0  0  0  0  0  0  0  0  0  0  0
   -3.1510   12.8900   23.7760 C   0  0  0  0  0  0  0  0  0  0  0  0
   -4.3930   12.5190   24.9050 Cl  0  0  0  0  0  0  0  0  0  0  0  0
   -2.4680   11.8680   23.1320 C   0  0  0  0  0  0  0  0  0  0  0  0
   -1.4560   12.1750   22.2130 C   0  0  0  0  0  0  0  0  0  0  0  0
   -1.5800   15.5550   22.4180 H   0  0  0  0  0  0  0  0  0  0  0  0
   -3.3540   15.0230   24.0070 H   0  0  0  0  0  0  0  0  0  0  0  0
   -2.7160   10.8290   23.3300 H   0  0  0  0  0  0  0  0  0  0  0  0
   -0.9710   11.3400   21.7160 H   0  0  0  0  0  0  0  0  0  0  0  0
    5.0060   14.0880   22.6180 O   0  0  0  0  0  0  0  0  0  0  0  0
    5.1260   14.2710   21.4130 C   0  0  0  0  0  0  0  0  0  0  0  0
    4.0760   14.1900   20.5200 N   0  0  0  0  0  0  0  0  0  0  0  0
    4.2280   14.4010   19.5440 H   0  0  0  0  0  0  0  0  0  0  0  0
    6.4550   14.6280   20.8490 C   0  0  0  0  0  0  0  0  0  0  0  0
    7.5590   14.5990   21.7010 C   0  0  0  0  0  0  0  0  0  0  0  0
    8.7940   14.9270   21.1760 C   0  0  0  0  0  0  0  0  0  0  0  0
    8.9900   15.2670   19.8840 N   0  0  0  0  0  0  0  0  0  0  0  0
    7.9080   15.2660   19.0770 C   0  0  0  0  0  0  0  0  0  0  0  0
    6.6290   14.9550   19.5050 C   0  0  0  0  0  0  0  0  0  0  0  0
    7.4570   14.3290   22.7470 H   0  0  0  0  0  0  0  0  0  0  0  0
    9.6860   14.9250   21.7970 H   0  0  0  0  0  0  0  0  0  0  0  0
    8.1060   15.5230   18.0400 H   0  0  0  0  0  0  0  0  0  0  0  0
    5.8140   14.9430   18.7920 H   0  0  0  0  0  0  0  0  0  0  0  0
  1  2  1  0  0  0  0
  1  7  1  0  0  0  0
  2  8  1  0  0  0  0
  3  4  1  0  0  0  0
  3 11  1  0  0  0  0
  3  2  1  0  0  0  0
  4 16  1  0  0  0  0
  5 12  1  0  0  0  0
  5  4  1  0  0  0  0
  6  5  1  0  0  0  0
  6  1  1  0  0  0  0
  9  2  1  0  0  0  0
 10  3  1  0  0  0  0
 13  5  1  0  0  0  0
 14  6  1  0  0  0  0
 15  6  1  0  0  0  0
 16 22  2  0  0  0  0
 16 17  1  0  0  0  0
 17 18  2  0  0  0  0
 18 19  1  0  0  0  0
 18 24  1  0  0  0  0
 19 20  1  0  0  0  0
 21 25  1  0  0  0  0
 21 19  2  0  0  0  0
 22 21  1  0  0  0  0
 23 17  1  0  0  0  0
 26 22  1  0  0  0  0
 28 27  2  0  0  0  0
 29  1  1  0  0  0  0
 29 28  1  0  0  0  0
 30 29  1  0  0  0  0
 31 28  1  0  0  0  0
 31 32  1  0  0  0  0
 32 37  1  0  0  0  0
 33 32  2  0  0  0  0
 33 38  1  0  0  0  0
 34 33  1  0  0  0  0
 35 36  1  0  0  0  0
 35 34  2  0  0  0  0
 36 31  2  0  0  0  0
 39 35  1  0  0  0  0
 40 36  1  0  0  0  0
M  END
>  <MODEL>
30

>  <REMARK>
 VINA RESULT:    -3.693      8.832     11.454
 INTER + INTRA:          -4.938
 INTER:                  -4.383
 INTRA:                  -0.554
 UNBOUND:                -0.597
  Name = 
  3 active torsions:
  status: ('A' for Active; 'I' for Inactive)
    1  A    between atoms: C_2  and  C_17
    2  A    between atoms: N_3  and  C_4
    3  A    between atoms: N_7  and  C_8
                            x       y       z     vdW  Elec       q    Type
                         _______ _______ _______ _____ _____    ______ ____

>  <TORSDO>
F 3

$$$$
