=
 OpenBabel07192307433D

 54 57  0  0  1  0  0  0  0  0999 V2000
    1.2220   10.0330   19.4910 C   0  0  0  0  0  0  0  0  0  0  0  0
    1.1990    9.1630   20.5920 C   0  0  0  0  0  0  0  0  0  0  0  0
    1.6290    7.8310   20.4870 C   0  0  0  0  0  0  0  0  0  0  0  0
    2.0800    7.3150   19.2700 C   0  0  0  0  0  0  0  0  0  0  0  0
    2.0810    8.1640   18.1600 C   0  0  0  0  0  0  0  0  0  0  0  0
    1.6530    9.4940   18.2700 C   0  0  0  0  0  0  0  0  0  0  0  0
    0.8370    9.4750   21.5650 H   0  0  0  0  0  0  0  0  0  0  0  0
    1.5920    7.2020   21.3740 H   0  0  0  0  0  0  0  0  0  0  0  0
    2.4070    7.8050   17.1870 H   0  0  0  0  0  0  0  0  0  0  0  0
    1.6620   10.0870   17.3560 H   0  0  0  0  0  0  0  0  0  0  0  0
   -1.1740   11.4480   23.0690 N   0  0  0  0  0  2  0  0  0  0  0  0
   -0.9100   12.6020   22.5650 C   0  0  0  0  0  0  0  0  0  0  0  0
   -1.0830   13.6440   23.4450 N   0  0  0  0  0  0  0  0  0  0  0  0
   -0.6470   14.7970   23.0700 C   0  0  0  0  0  3  0  0  0  0  0  0
   -0.0580   15.0510   21.8770 N   0  0  0  0  0  0  0  0  0  0  0  0
    0.0140   14.0890   20.9030 C   0  0  0  0  0  0  0  0  0  0  0  0
   -0.4200   12.8380   21.1680 C   0  0  0  0  0  0  0  0  0  0  0  0
   -0.4520   11.7060   20.2080 C   0  0  0  0  0  0  0  0  0  0  0  0
   -1.5020   11.0980   20.0090 O   0  0  0  0  0  0  0  0  0  0  0  0
    0.7600   11.3960   19.5870 N   0  0  0  0  0  0  0  0  0  0  0  0
    1.5180   12.4690   18.9410 C   0  0  0  0  0  0  0  0  0  0  0  0
    0.6660   13.6980   18.6190 C   0  0  0  0  0  0  0  0  0  0  0  0
    0.5390   14.5710   19.7360 O   0  0  0  0  0  0  0  0  0  0  0  0
   -1.4790   11.6450   24.0300 H   0  0  0  0  0  0  0  0  0  0  0  0
   -0.7360   15.6810   23.7240 H   0  0  0  0  0  0  0  0  0  0  0  0
    0.1960   15.9890   21.5960 H   0  0  0  0  0  0  0  0  0  0  0  0
    2.3670   12.7230   19.5850 H   0  0  0  0  0  0  0  0  0  0  0  0
    1.8820   12.1030   17.9770 H   0  0  0  0  0  0  0  0  0  0  0  0
   -0.3230   13.4460   18.2180 H   0  0  0  0  0  0  0  0  0  0  0  0
    1.1790   14.2800   17.8450 H   0  0  0  0  0  0  0  0  0  0  0  0
    2.5490    5.8760   19.1270 C   0  0  1  0  0  0  0  0  0  0  0  0
    2.1720    5.0020   20.3420 C   0  0  0  0  0  0  0  0  0  0  0  0
    1.0560    4.0070   20.0330 C   0  0  0  0  0  0  0  0  0  0  0  0
    1.4040    3.0620   18.8650 C   0  0  1  0  0  0  0  0  0  0  0  0
    2.2770    3.7520   17.7960 C   0  0  0  0  0  0  0  0  0  0  0  0
    2.0910    5.2660   17.7890 C   0  0  0  0  0  0  0  0  0  0  0  0
    3.6490    5.8950   19.1050 H   0  0  0  0  0  0  0  0  0  0  0  0
    1.8960    5.6140   21.2090 H   0  0  0  0  0  0  0  0  0  0  0  0
    3.0590    4.4310   20.6500 H   0  0  0  0  0  0  0  0  0  0  0  0
    0.1450    4.5620   19.7770 H   0  0  0  0  0  0  0  0  0  0  0  0
    0.8100    3.4350   20.9360 H   0  0  0  0  0  0  0  0  0  0  0  0
    0.4510    2.7810   18.3940 H   0  0  0  0  0  0  0  0  0  0  0  0
    3.3400    3.5300   17.9610 H   0  0  0  0  0  0  0  0  0  0  0  0
    2.0290    3.3520   16.8060 H   0  0  0  0  0  0  0  0  0  0  0  0
    1.0390    5.4940   17.5800 H   0  0  0  0  0  0  0  0  0  0  0  0
    2.6680    5.7080   16.9680 H   0  0  0  0  0  0  0  0  0  0  0  0
    2.0770    1.7760   19.3790 C   0  0  0  0  0  0  0  0  0  0  0  0
    1.6740    0.9080   18.8410 H   0  0  0  0  0  0  0  0  0  0  0  0
    1.8630    1.6330   20.4450 H   0  0  0  0  0  0  0  0  0  0  0  0
    3.5790    1.7540   19.1680 C   0  0  0  0  0  0  0  0  0  0  0  0
    3.9890    0.9080   18.1780 N   0  0  0  0  0  0  0  0  0  0  0  0
    4.3850    2.4400   19.7810 O   0  0  0  0  0  0  0  0  0  0  0  0
    4.9860    0.8190   18.0340 H   0  0  0  0  0  0  0  0  0  0  0  0
    3.3780    0.2230   17.7570 H   0  0  0  0  0  0  0  0  0  0  0  0
  1 20  1  0  0  0  0
  1  2  1  0  0  0  0
  2  7  1  0  0  0  0
  3  2  2  0  0  0  0
  3  8  1  0  0  0  0
  4  3  1  0  0  0  0
  5  6  1  0  0  0  0
  5  4  2  0  0  0  0
  6  1  2  0  0  0  0
  9  5  1  0  0  0  0
 10  6  1  0  0  0  0
 11 24  1  0  0  0  0
 12 11  1  0  0  0  0
 12 13  2  0  0  0  0
 14 13  1  0  0  0  0
 14 25  1  0  0  0  0
 15 14  1  0  0  0  0
 16 17  2  0  0  0  0
 16 15  1  0  0  0  0
 17 12  1  0  0  0  0
 18 17  1  0  0  0  0
 19 18  2  0  0  0  0
 20 18  1  0  0  0  0
 21 27  1  0  0  0  0
 21 20  1  0  0  0  0
 22 21  1  0  0  0  0
 22 23  1  0  0  0  0
 23 16  1  0  0  0  0
 26 15  1  0  0  0  0
 28 21  1  0  0  0  0
 29 22  1  0  0  0  0
 30 22  1  0  0  0  0
 31 37  1  6  0  0  0
 31  4  1  0  0  0  0
 31 32  1  0  0  0  0
 32 39  1  0  0  0  0
 32 38  1  0  0  0  0
 33 32  1  0  0  0  0
 33 41  1  0  0  0  0
 34 42  1  6  0  0  0
 34 47  1  0  0  0  0
 34 33  1  0  0  0  0
 35 43  1  0  0  0  0
 35 34  1  0  0  0  0
 36 35  1  0  0  0  0
 36 31  1  0  0  0  0
 40 33  1  0  0  0  0
 44 35  1  0  0  0  0
 45 36  1  0  0  0  0
 46 36  1  0  0  0  0
 47 49  1  0  0  0  0
 48 47  1  0  0  0  0
 50 47  1  0  0  0  0
 50 52  2  0  0  0  0
 51 50  1  0  0  0  0
 53 51  1  0  0  0  0
 54 51  1  0  0  0  0
M  END
>  <MODEL>
1

>  <REMARK>
 VINA RESULT:    -9.548      0.000      0.000
 INTER + INTRA:         -11.649
 INTER:                 -10.885
 INTRA:                  -0.764
 UNBOUND:                 0.131
  Name = 
  4 active torsions:
  status: ('A' for Active; 'I' for Inactive)
    1  A    between atoms: N_10  and  C_11
    2  A    between atoms: C_14  and  C_15
    3  A    between atoms: C_18  and  C_19
    4  A    between atoms: C_19  and  C_20
                            x       y       z     vdW  Elec       q    Type
                         _______ _______ _______ _____ _____    ______ ____

>  <TORSDO>
F 4

$$$$
=
 OpenBabel07192307433D

 54 57  0  0  1  0  0  0  0  0999 V2000
    1.2850    9.8930   19.3640 C   0  0  0  0  0  0  0  0  0  0  0  0
    1.8690    9.4130   18.1810 C   0  0  0  0  0  0  0  0  0  0  0  0
    2.3400    8.0950   18.0740 C   0  0  0  0  0  0  0  0  0  0  0  0
    2.2610    7.2140   19.1550 C   0  0  0  0  0  0  0  0  0  0  0  0
    1.7070    7.6900   20.3470 C   0  0  0  0  0  0  0  0  0  0  0  0
    1.2360    9.0050   20.4490 C   0  0  0  0  0  0  0  0  0  0  0  0
    1.9950   10.0400   17.3050 H   0  0  0  0  0  0  0  0  0  0  0  0
    2.7800    7.7760   17.1330 H   0  0  0  0  0  0  0  0  0  0  0  0
    1.6380    7.0470   21.2220 H   0  0  0  0  0  0  0  0  0  0  0  0
    0.8380    9.3080   21.4160 H   0  0  0  0  0  0  0  0  0  0  0  0
   -1.2470   11.1950   22.8900 N   0  0  0  0  0  2  0  0  0  0  0  0
   -0.9630   12.3640   22.4350 C   0  0  0  0  0  0  0  0  0  0  0  0
   -1.1700   13.3770   23.3410 N   0  0  0  0  0  0  0  0  0  0  0  0
   -0.7190   14.5410   23.0210 C   0  0  0  0  0  3  0  0  0  0  0  0
   -0.0840   14.8330   21.8610 N   0  0  0  0  0  0  0  0  0  0  0  0
    0.0250   13.9030   20.8590 C   0  0  0  0  0  0  0  0  0  0  0  0
   -0.4200   12.6440   21.0670 C   0  0  0  0  0  0  0  0  0  0  0  0
   -0.4140   11.5440   20.0700 C   0  0  0  0  0  0  0  0  0  0  0  0
   -1.4560   10.9450   19.8100 O   0  0  0  0  0  0  0  0  0  0  0  0
    0.8210   11.2530   19.4870 N   0  0  0  0  0  0  0  0  0  0  0  0
    1.6030   12.3450   18.9060 C   0  0  0  0  0  0  0  0  0  0  0  0
    0.7650   13.5860   18.5910 C   0  0  0  0  0  0  0  0  0  0  0  0
    0.5960   14.4220   19.7290 O   0  0  0  0  0  0  0  0  0  0  0  0
   -1.5890   11.3610   23.8450 H   0  0  0  0  0  0  0  0  0  0  0  0
   -0.8330   15.4040   23.6990 H   0  0  0  0  0  0  0  0  0  0  0  0
    0.1810   15.7800   21.6200 H   0  0  0  0  0  0  0  0  0  0  0  0
    2.4270   12.5760   19.5900 H   0  0  0  0  0  0  0  0  0  0  0  0
    2.0050   12.0100   17.9450 H   0  0  0  0  0  0  0  0  0  0  0  0
   -0.2080   13.3480   18.1440 H   0  0  0  0  0  0  0  0  0  0  0  0
    1.3080   14.1910   17.8570 H   0  0  0  0  0  0  0  0  0  0  0  0
    2.7640    5.7830   19.0690 C   0  0  1  0  0  0  0  0  0  0  0  0
    1.6420    4.7420   19.2710 C   0  0  0  0  0  0  0  0  0  0  0  0
    1.2610    4.0210   17.9800 C   0  0  0  0  0  0  0  0  0  0  0  0
    2.4550    3.3010   17.3230 C   0  0  1  0  0  0  0  0  0  0  0  0
    3.7840    4.0550   17.5410 C   0  0  0  0  0  0  0  0  0  0  0  0
    3.5690    5.5470   17.7770 C   0  0  0  0  0  0  0  0  0  0  0  0
    3.4620    5.6330   19.9070 H   0  0  0  0  0  0  0  0  0  0  0  0
    0.7510    5.1940   19.7220 H   0  0  0  0  0  0  0  0  0  0  0  0
    1.9900    3.9880   19.9890 H   0  0  0  0  0  0  0  0  0  0  0  0
    0.8570    4.7530   17.2690 H   0  0  0  0  0  0  0  0  0  0  0  0
    0.4430    3.3180   18.1760 H   0  0  0  0  0  0  0  0  0  0  0  0
    2.2530    3.2780   16.2430 H   0  0  0  0  0  0  0  0  0  0  0  0
    4.3290    3.6390   18.3990 H   0  0  0  0  0  0  0  0  0  0  0  0
    4.4320    3.9160   16.6680 H   0  0  0  0  0  0  0  0  0  0  0  0
    3.0640    5.9760   16.9020 H   0  0  0  0  0  0  0  0  0  0  0  0
    4.5370    6.0550   17.8500 H   0  0  0  0  0  0  0  0  0  0  0  0
    2.5610    1.8460   17.8160 C   0  0  0  0  0  0  0  0  0  0  0  0
    2.8200    1.1890   16.9770 H   0  0  0  0  0  0  0  0  0  0  0  0
    1.5970    1.5080   18.2160 H   0  0  0  0  0  0  0  0  0  0  0  0
    3.6330    1.6420   18.8700 C   0  0  0  0  0  0  0  0  0  0  0  0
    4.5190    0.6470   18.5760 N   0  0  0  0  0  0  0  0  0  0  0  0
    3.7520    2.3070   19.8910 O   0  0  0  0  0  0  0  0  0  0  0  0
    5.2230    0.4370   19.2720 H   0  0  0  0  0  0  0  0  0  0  0  0
    4.3690   -0.0140   17.8280 H   0  0  0  0  0  0  0  0  0  0  0  0
  1 20  1  0  0  0  0
  1  6  1  0  0  0  0
  2  1  2  0  0  0  0
  3  2  1  0  0  0  0
  3  4  2  0  0  0  0
  4  5  1  0  0  0  0
  5  6  2  0  0  0  0
  5  9  1  0  0  0  0
  6 10  1  0  0  0  0
  7  2  1  0  0  0  0
  8  3  1  0  0  0  0
 11 24  1  0  0  0  0
 12 11  1  0  0  0  0
 12 13  2  0  0  0  0
 14 13  1  0  0  0  0
 14 25  1  0  0  0  0
 15 14  1  0  0  0  0
 16 17  2  0  0  0  0
 16 15  1  0  0  0  0
 17 12  1  0  0  0  0
 18 17  1  0  0  0  0
 19 18  2  0  0  0  0
 20 18  1  0  0  0  0
 21 20  1  0  0  0  0
 21 27  1  0  0  0  0
 22 21  1  0  0  0  0
 22 23  1  0  0  0  0
 23 16  1  0  0  0  0
 26 15  1  0  0  0  0
 28 21  1  0  0  0  0
 29 22  1  0  0  0  0
 30 22  1  0  0  0  0
 31  4  1  0  0  0  0
 31 32  1  0  0  0  0
 31 37  1  1  0  0  0
 32 38  1  0  0  0  0
 32 39  1  0  0  0  0
 33 41  1  0  0  0  0
 33 32  1  0  0  0  0
 34 42  1  6  0  0  0
 34 35  1  0  0  0  0
 34 47  1  0  0  0  0
 34 33  1  0  0  0  0
 35 36  1  0  0  0  0
 35 43  1  0  0  0  0
 36 46  1  0  0  0  0
 36 31  1  0  0  0  0
 40 33  1  0  0  0  0
 44 35  1  0  0  0  0
 45 36  1  0  0  0  0
 47 49  1  0  0  0  0
 47 50  1  0  0  0  0
 48 47  1  0  0  0  0
 50 52  2  0  0  0  0
 51 50  1  0  0  0  0
 51 53  1  0  0  0  0
 54 51  1  0  0  0  0
M  END
>  <MODEL>
2

>  <REMARK>
 VINA RESULT:    -9.242      0.658      1.197
 INTER + INTRA:         -11.272
 INTER:                 -10.679
 INTRA:                  -0.594
 UNBOUND:                 0.131
  Name = 
  4 active torsions:
  status: ('A' for Active; 'I' for Inactive)
    1  A    between atoms: N_10  and  C_11
    2  A    between atoms: C_14  and  C_15
    3  A    between atoms: C_18  and  C_19
    4  A    between atoms: C_19  and  C_20
                            x       y       z     vdW  Elec       q    Type
                         _______ _______ _______ _____ _____    ______ ____

>  <TORSDO>
F 4

$$$$
=
 OpenBabel07192307433D

 54 57  0  0  1  0  0  0  0  0999 V2000
    1.0820    9.3180   19.4290 C   0  0  0  0  0  0  0  0  0  0  0  0
    1.4470    8.2630   20.2800 C   0  0  0  0  0  0  0  0  0  0  0  0
    2.3180    7.2460   19.8590 C   0  0  0  0  0  0  0  0  0  0  0  0
    2.8410    7.2360   18.5640 C   0  0  0  0  0  0  0  0  0  0  0  0
    2.4620    8.2670   17.7000 C   0  0  0  0  0  0  0  0  0  0  0  0
    1.5950    9.2820   18.1240 C   0  0  0  0  0  0  0  0  0  0  0  0
    1.0630    8.1790   21.2900 H   0  0  0  0  0  0  0  0  0  0  0  0
    2.5690    6.4540   20.5620 H   0  0  0  0  0  0  0  0  0  0  0  0
    2.8300    8.2950   16.6760 H   0  0  0  0  0  0  0  0  0  0  0  0
    1.3290   10.0380   17.3860 H   0  0  0  0  0  0  0  0  0  0  0  0
   -2.0790   10.9360   16.6130 N   0  0  0  0  0  2  0  0  0  0  0  0
   -2.5310   11.4510   17.7010 C   0  0  0  0  0  0  0  0  0  0  0  0
   -3.8410   11.8620   17.6180 N   0  0  0  0  0  0  0  0  0  0  0  0
   -4.4130   12.2000   18.7220 C   0  0  0  0  0  3  0  0  0  0  0  0
   -3.8130   12.1980   19.9370 N   0  0  0  0  0  0  0  0  0  0  0  0
   -2.4720   11.9380   20.0650 C   0  0  0  0  0  0  0  0  0  0  0  0
   -1.7560   11.5800   18.9770 C   0  0  0  0  0  0  0  0  0  0  0  0
   -0.2960   11.3130   18.9460 C   0  0  0  0  0  0  0  0  0  0  0  0
    0.4220   11.9170   18.1520 O   0  0  0  0  0  0  0  0  0  0  0  0
    0.1700   10.3540   19.8470 N   0  0  0  0  0  0  0  0  0  0  0  0
   -0.2020   10.4690   21.2580 C   0  0  0  0  0  0  0  0  0  0  0  0
   -0.6600   11.8760   21.6470 C   0  0  0  0  0  0  0  0  0  0  0  0
   -2.0350   12.0950   21.3510 O   0  0  0  0  0  0  0  0  0  0  0  0
   -2.8600   11.0030   15.9470 H   0  0  0  0  0  0  0  0  0  0  0  0
   -5.4650   12.5280   18.7430 H   0  0  0  0  0  0  0  0  0  0  0  0
   -4.2790   12.5480   20.7640 H   0  0  0  0  0  0  0  0  0  0  0  0
   -0.9730    9.7200   21.4710 H   0  0  0  0  0  0  0  0  0  0  0  0
    0.6840   10.2690   21.8680 H   0  0  0  0  0  0  0  0  0  0  0  0
   -0.0440   12.6690   21.2060 H   0  0  0  0  0  0  0  0  0  0  0  0
   -0.5720   11.9790   22.7350 H   0  0  0  0  0  0  0  0  0  0  0  0
    3.7840    6.1470   18.0820 C   0  0  1  0  0  0  0  0  0  0  0  0
    4.8840    6.6820   17.1410 C   0  0  0  0  0  0  0  0  0  0  0  0
    6.2630    6.7130   17.7970 C   0  0  0  0  0  0  0  0  0  0  0  0
    6.7130    5.3280   18.3040 C   0  0  1  0  0  0  0  0  0  0  0  0
    5.5280    4.4750   18.8050 C   0  0  0  0  0  0  0  0  0  0  0  0
    4.3520    5.3330   19.2600 C   0  0  0  0  0  0  0  0  0  0  0  0
    3.1890    5.4480   17.4740 H   0  0  0  0  0  0  0  0  0  0  0  0
    4.6340    7.6780   16.7550 H   0  0  0  0  0  0  0  0  0  0  0  0
    4.9420    6.0270   16.2620 H   0  0  0  0  0  0  0  0  0  0  0  0
    6.2380    7.4070   18.6460 H   0  0  0  0  0  0  0  0  0  0  0  0
    6.9970    7.1280   17.0960 H   0  0  0  0  0  0  0  0  0  0  0  0
    7.3840    5.5080   19.1560 H   0  0  0  0  0  0  0  0  0  0  0  0
    5.1810    3.7940   18.0160 H   0  0  0  0  0  0  0  0  0  0  0  0
    5.8580    3.8410   19.6360 H   0  0  0  0  0  0  0  0  0  0  0  0
    4.6830    5.9840   20.0790 H   0  0  0  0  0  0  0  0  0  0  0  0
    3.5650    4.6940   19.6770 H   0  0  0  0  0  0  0  0  0  0  0  0
    7.5130    4.5780   17.2220 C   0  0  0  0  0  0  0  0  0  0  0  0
    7.6990    3.5470   17.5490 H   0  0  0  0  0  0  0  0  0  0  0  0
    8.4860    5.0580   17.0670 H   0  0  0  0  0  0  0  0  0  0  0  0
    6.7890    4.4840   15.8930 C   0  0  0  0  0  0  0  0  0  0  0  0
    7.3440    5.2420   14.9030 N   0  0  0  0  0  0  0  0  0  0  0  0
    5.8130    3.7790   15.6710 O   0  0  0  0  0  0  0  0  0  0  0  0
    6.8670    5.2530   14.0100 H   0  0  0  0  0  0  0  0  0  0  0  0
    8.0490    5.9420   15.0810 H   0  0  0  0  0  0  0  0  0  0  0  0
  1 20  1  0  0  0  0
  1  2  1  0  0  0  0
  2  7  1  0  0  0  0
  3  2  2  0  0  0  0
  3  8  1  0  0  0  0
  4  3  1  0  0  0  0
  5  6  1  0  0  0  0
  5  4  2  0  0  0  0
  6  1  2  0  0  0  0
  9  5  1  0  0  0  0
 10  6  1  0  0  0  0
 11 12  1  0  0  0  0
 12 17  1  0  0  0  0
 13 12  2  0  0  0  0
 13 14  1  0  0  0  0
 14 25  1  0  0  0  0
 14 15  1  0  0  0  0
 15 16  1  0  0  0  0
 15 26  1  0  0  0  0
 16 23  1  0  0  0  0
 17 16  2  0  0  0  0
 18 17  1  0  0  0  0
 18 20  1  0  0  0  0
 19 18  2  0  0  0  0
 20 21  1  0  0  0  0
 21 27  1  0  0  0  0
 21 22  1  0  0  0  0
 21 28  1  0  0  0  0
 22 30  1  0  0  0  0
 23 22  1  0  0  0  0
 24 11  1  0  0  0  0
 29 22  1  0  0  0  0
 31 37  1  6  0  0  0
 31  4  1  0  0  0  0
 31 36  1  0  0  0  0
 32 33  1  0  0  0  0
 32 31  1  0  0  0  0
 33 34  1  0  0  0  0
 33 40  1  0  0  0  0
 34 35  1  0  0  0  0
 34 42  1  1  0  0  0
 35 36  1  0  0  0  0
 35 44  1  0  0  0  0
 36 46  1  0  0  0  0
 36 45  1  0  0  0  0
 38 32  1  0  0  0  0
 39 32  1  0  0  0  0
 41 33  1  0  0  0  0
 43 35  1  0  0  0  0
 47 48  1  0  0  0  0
 47 34  1  0  0  0  0
 49 47  1  0  0  0  0
 50 47  1  0  0  0  0
 51 54  1  0  0  0  0
 51 50  1  0  0  0  0
 52 50  2  0  0  0  0
 53 51  1  0  0  0  0
M  END
>  <MODEL>
3

>  <REMARK>
 VINA RESULT:    -9.126      3.172      4.175
 INTER + INTRA:         -11.129
 INTER:                 -11.066
 INTRA:                  -0.063
 UNBOUND:                 0.131
  Name = 
  4 active torsions:
  status: ('A' for Active; 'I' for Inactive)
    1  A    between atoms: N_10  and  C_11
    2  A    between atoms: C_14  and  C_15
    3  A    between atoms: C_18  and  C_19
    4  A    between atoms: C_19  and  C_20
                            x       y       z     vdW  Elec       q    Type
                         _______ _______ _______ _____ _____    ______ ____

>  <TORSDO>
F 4

$$$$
=
 OpenBabel07192307433D

 54 57  0  0  1  0  0  0  0  0999 V2000
    1.1790    8.9160   20.1400 C   0  0  0  0  0  0  0  0  0  0  0  0
    1.4450    9.3430   18.8300 C   0  0  0  0  0  0  0  0  0  0  0  0
    2.1880    8.5560   17.9360 C   0  0  0  0  0  0  0  0  0  0  0  0
    2.7090    7.3200   18.3280 C   0  0  0  0  0  0  0  0  0  0  0  0
    2.4740    6.8990   19.6390 C   0  0  0  0  0  0  0  0  0  0  0  0
    1.7300    7.6860   20.5280 C   0  0  0  0  0  0  0  0  0  0  0  0
    1.1030   10.3010   18.4550 H   0  0  0  0  0  0  0  0  0  0  0  0
    2.3620    8.9340   16.9320 H   0  0  0  0  0  0  0  0  0  0  0  0
    2.8720    5.9520   19.9970 H   0  0  0  0  0  0  0  0  0  0  0  0
    1.6080    7.3000   21.5390 H   0  0  0  0  0  0  0  0  0  0  0  0
   -0.7220   12.8190   18.8370 N   0  0  0  0  0  2  0  0  0  0  0  0
   -1.3170   12.7020   19.9710 C   0  0  0  0  0  0  0  0  0  0  0  0
   -2.4400   13.4860   20.0920 N   0  0  0  0  0  0  0  0  0  0  0  0
   -3.1910   13.2690   21.1170 C   0  0  0  0  0  3  0  0  0  0  0  0
   -2.9400   12.3500   22.0790 N   0  0  0  0  0  0  0  0  0  0  0  0
   -1.7670   11.6390   22.0920 C   0  0  0  0  0  0  0  0  0  0  0  0
   -0.8890   11.7840   21.0760 C   0  0  0  0  0  0  0  0  0  0  0  0
    0.4370   11.1240   20.9710 C   0  0  0  0  0  0  0  0  0  0  0  0
    1.4490   11.8000   20.7980 O   0  0  0  0  0  0  0  0  0  0  0  0
    0.4360    9.7310   21.0700 N   0  0  0  0  0  0  0  0  0  0  0  0
   -0.2540    9.1030   22.1980 C   0  0  0  0  0  0  0  0  0  0  0  0
   -0.4820   10.0570   23.3720 C   0  0  0  0  0  0  0  0  0  0  0  0
   -1.6530   10.8480   23.2020 O   0  0  0  0  0  0  0  0  0  0  0  0
   -1.2700   13.5210   18.3240 H   0  0  0  0  0  0  0  0  0  0  0  0
   -4.1170   13.8470   21.2780 H   0  0  0  0  0  0  0  0  0  0  0  0
   -3.5170   12.2710   22.9070 H   0  0  0  0  0  0  0  0  0  0  0  0
   -1.1960    8.6820   21.8310 H   0  0  0  0  0  0  0  0  0  0  0  0
    0.3800    8.3020   22.5890 H   0  0  0  0  0  0  0  0  0  0  0  0
    0.3830   10.6970   23.5830 H   0  0  0  0  0  0  0  0  0  0  0  0
   -0.6570    9.4600   24.2730 H   0  0  0  0  0  0  0  0  0  0  0  0
    3.5190    6.4490   17.3820 C   0  0  1  0  0  0  0  0  0  0  0  0
    4.9900    6.9010   17.2640 C   0  0  0  0  0  0  0  0  0  0  0  0
    5.9610    5.9530   17.9630 C   0  0  0  0  0  0  0  0  0  0  0  0
    5.8710    4.5090   17.4330 C   0  0  1  0  0  0  0  0  0  0  0  0
    4.4360    4.1300   17.0080 C   0  0  0  0  0  0  0  0  0  0  0  0
    3.3820    4.9560   17.7380 C   0  0  0  0  0  0  0  0  0  0  0  0
    3.0880    6.5740   16.3770 H   0  0  0  0  0  0  0  0  0  0  0  0
    5.1280    7.9220   17.6410 H   0  0  0  0  0  0  0  0  0  0  0  0
    5.2590    6.9380   16.2000 H   0  0  0  0  0  0  0  0  0  0  0  0
    5.7410    5.9480   19.0380 H   0  0  0  0  0  0  0  0  0  0  0  0
    6.9840    6.3380   17.8730 H   0  0  0  0  0  0  0  0  0  0  0  0
    6.1630    3.8500   18.2630 H   0  0  0  0  0  0  0  0  0  0  0  0
    4.3030    4.2670   15.9270 H   0  0  0  0  0  0  0  0  0  0  0  0
    4.2640    3.0660   17.2070 H   0  0  0  0  0  0  0  0  0  0  0  0
    3.4830    4.7870   18.8170 H   0  0  0  0  0  0  0  0  0  0  0  0
    2.3800    4.6050   17.4660 H   0  0  0  0  0  0  0  0  0  0  0  0
    6.8640    4.2830   16.2780 C   0  0  0  0  0  0  0  0  0  0  0  0
    7.2490    3.2560   16.3160 H   0  0  0  0  0  0  0  0  0  0  0  0
    7.7200    4.9620   16.3730 H   0  0  0  0  0  0  0  0  0  0  0  0
    6.2440    4.4580   14.9050 C   0  0  0  0  0  0  0  0  0  0  0  0
    6.2340    3.3210   14.1500 N   0  0  0  0  0  0  0  0  0  0  0  0
    5.7540    5.4970   14.4810 O   0  0  0  0  0  0  0  0  0  0  0  0
    5.8770    3.3990   13.2060 H   0  0  0  0  0  0  0  0  0  0  0  0
    6.7550    2.4940   14.4010 H   0  0  0  0  0  0  0  0  0  0  0  0
  1  6  1  0  0  0  0
  1 20  1  0  0  0  0
  2  1  2  0  0  0  0
  3  4  2  0  0  0  0
  3  2  1  0  0  0  0
  4  5  1  0  0  0  0
  5  9  1  0  0  0  0
  5  6  2  0  0  0  0
  6 10  1  0  0  0  0
  7  2  1  0  0  0  0
  8  3  1  0  0  0  0
 11 12  1  0  0  0  0
 12 13  2  0  0  0  0
 12 17  1  0  0  0  0
 13 14  1  0  0  0  0
 14 25  1  0  0  0  0
 14 15  1  0  0  0  0
 15 16  1  0  0  0  0
 15 26  1  0  0  0  0
 16 23  1  0  0  0  0
 17 16  2  0  0  0  0
 18 20  1  0  0  0  0
 18 17  1  0  0  0  0
 19 18  2  0  0  0  0
 20 21  1  0  0  0  0
 21 28  1  0  0  0  0
 21 22  1  0  0  0  0
 22 29  1  0  0  0  0
 22 30  1  0  0  0  0
 23 22  1  0  0  0  0
 24 11  1  0  0  0  0
 27 21  1  0  0  0  0
 31 37  1  6  0  0  0
 31 36  1  0  0  0  0
 31  4  1  0  0  0  0
 32 31  1  0  0  0  0
 32 38  1  0  0  0  0
 32 33  1  0  0  0  0
 33 40  1  0  0  0  0
 34 33  1  0  0  0  0
 34 42  1  1  0  0  0
 35 44  1  0  0  0  0
 35 34  1  0  0  0  0
 35 36  1  0  0  0  0
 36 45  1  0  0  0  0
 39 32  1  0  0  0  0
 41 33  1  0  0  0  0
 43 35  1  0  0  0  0
 46 36  1  0  0  0  0
 47 48  1  0  0  0  0
 47 49  1  0  0  0  0
 47 34  1  0  0  0  0
 50 47  1  0  0  0  0
 51 54  1  0  0  0  0
 51 50  1  0  0  0  0
 52 50  2  0  0  0  0
 53 51  1  0  0  0  0
M  END
>  <MODEL>
4

>  <REMARK>
 VINA RESULT:    -9.080      2.859      3.905
 INTER + INTRA:         -11.072
 INTER:                 -10.526
 INTRA:                  -0.547
 UNBOUND:                 0.131
  Name = 
  4 active torsions:
  status: ('A' for Active; 'I' for Inactive)
    1  A    between atoms: N_10  and  C_11
    2  A    between atoms: C_14  and  C_15
    3  A    between atoms: C_18  and  C_19
    4  A    between atoms: C_19  and  C_20
                            x       y       z     vdW  Elec       q    Type
                         _______ _______ _______ _____ _____    ______ ____

>  <TORSDO>
F 4

$$$$
=
 OpenBabel07192307433D

 54 57  0  0  1  0  0  0  0  0999 V2000
    0.8240    9.7140   20.0730 C   0  0  0  0  0  0  0  0  0  0  0  0
    0.9590    9.9020   18.6880 C   0  0  0  0  0  0  0  0  0  0  0  0
    1.5630    8.9350   17.8700 C   0  0  0  0  0  0  0  0  0  0  0  0
    2.0710    7.7520   18.4100 C   0  0  0  0  0  0  0  0  0  0  0  0
    1.9670    7.5670   19.7910 C   0  0  0  0  0  0  0  0  0  0  0  0
    1.3610    8.5330   20.6050 C   0  0  0  0  0  0  0  0  0  0  0  0
    0.6180   10.8050   18.1930 H   0  0  0  0  0  0  0  0  0  0  0  0
    1.6390    9.1320   16.8030 H   0  0  0  0  0  0  0  0  0  0  0  0
    2.3620    6.6690   20.2620 H   0  0  0  0  0  0  0  0  0  0  0  0
    1.3380    8.3270   21.6740 H   0  0  0  0  0  0  0  0  0  0  0  0
    0.5840   14.0510   18.7770 N   0  0  0  0  0  2  0  0  0  0  0  0
   -0.2200   14.1210   19.7780 C   0  0  0  0  0  0  0  0  0  0  0  0
   -1.0270   15.2340   19.7650 N   0  0  0  0  0  0  0  0  0  0  0  0
   -1.9870   15.2640   20.6240 C   0  0  0  0  0  3  0  0  0  0  0  0
   -2.2370   14.2960   21.5390 N   0  0  0  0  0  0  0  0  0  0  0  0
   -1.3850   13.2330   21.6980 C   0  0  0  0  0  0  0  0  0  0  0  0
   -0.3320   13.0930   20.8640 C   0  0  0  0  0  0  0  0  0  0  0  0
    0.7000   12.0280   20.9360 C   0  0  0  0  0  0  0  0  0  0  0  0
    1.8900   12.3290   20.9950 O   0  0  0  0  0  0  0  0  0  0  0  0
    0.2250   10.7140   20.9220 N   0  0  0  0  0  0  0  0  0  0  0  0
   -0.8320   10.3340   21.8600 C   0  0  0  0  0  0  0  0  0  0  0  0
   -0.9540   11.2890   23.0490 C   0  0  0  0  0  0  0  0  0  0  0  0
   -1.7480   12.4300   22.7440 O   0  0  0  0  0  0  0  0  0  0  0  0
    0.4030   14.9050   18.2350 H   0  0  0  0  0  0  0  0  0  0  0  0
   -2.6870   16.1150   20.6700 H   0  0  0  0  0  0  0  0  0  0  0  0
   -2.9540   14.4010   22.2460 H   0  0  0  0  0  0  0  0  0  0  0  0
   -1.7720   10.2610   21.3030 H   0  0  0  0  0  0  0  0  0  0  0  0
   -0.5800    9.3600   22.2900 H   0  0  0  0  0  0  0  0  0  0  0  0
    0.0160   11.5980   23.4570 H   0  0  0  0  0  0  0  0  0  0  0  0
   -1.4820   10.7690   23.8560 H   0  0  0  0  0  0  0  0  0  0  0  0
    2.7310    6.6880   17.5480 C   0  0  1  0  0  0  0  0  0  0  0  0
    4.2390    6.9440   17.3340 C   0  0  0  0  0  0  0  0  0  0  0  0
    5.1220    5.9690   18.1090 C   0  0  0  0  0  0  0  0  0  0  0  0
    4.8410    4.4960   17.7520 C   0  0  1  0  0  0  0  0  0  0  0  0
    3.3540    4.2480   17.4170 C   0  0  0  0  0  0  0  0  0  0  0  0
    2.4370    5.2730   18.0780 C   0  0  0  0  0  0  0  0  0  0  0  0
    2.2750    6.7530   16.5480 H   0  0  0  0  0  0  0  0  0  0  0  0
    4.5120    7.9750   17.5870 H   0  0  0  0  0  0  0  0  0  0  0  0
    4.4640    6.8290   16.2650 H   0  0  0  0  0  0  0  0  0  0  0  0
    4.9500    6.1100   19.1830 H   0  0  0  0  0  0  0  0  0  0  0  0
    6.1780    6.2140   17.9440 H   0  0  0  0  0  0  0  0  0  0  0  0
    5.0900    3.9030   18.6440 H   0  0  0  0  0  0  0  0  0  0  0  0
    3.1920    4.2800   16.3320 H   0  0  0  0  0  0  0  0  0  0  0  0
    3.0670    3.2420   17.7430 H   0  0  0  0  0  0  0  0  0  0  0  0
    2.5630    5.2140   19.1660 H   0  0  0  0  0  0  0  0  0  0  0  0
    1.3900    5.0170   17.8780 H   0  0  0  0  0  0  0  0  0  0  0  0
    5.7500    4.0240   16.6020 C   0  0  0  0  0  0  0  0  0  0  0  0
    5.3390    4.3650   15.6430 H   0  0  0  0  0  0  0  0  0  0  0  0
    5.7920    2.9290   16.5730 H   0  0  0  0  0  0  0  0  0  0  0  0
    7.1620    4.5720   16.6840 C   0  0  0  0  0  0  0  0  0  0  0  0
    7.5220    5.3440   15.6180 N   0  0  0  0  0  0  0  0  0  0  0  0
    7.9330    4.3920   17.6180 O   0  0  0  0  0  0  0  0  0  0  0  0
    8.4730    5.6900   15.6020 H   0  0  0  0  0  0  0  0  0  0  0  0
    6.9760    5.3930   14.7700 H   0  0  0  0  0  0  0  0  0  0  0  0
  1  6  1  0  0  0  0
  1 20  1  0  0  0  0
  2  1  2  0  0  0  0
  3  4  2  0  0  0  0
  3  2  1  0  0  0  0
  4  5  1  0  0  0  0
  5  9  1  0  0  0  0
  5  6  2  0  0  0  0
  6 10  1  0  0  0  0
  7  2  1  0  0  0  0
  8  3  1  0  0  0  0
 11 12  1  0  0  0  0
 12 17  1  0  0  0  0
 13 12  2  0  0  0  0
 13 14  1  0  0  0  0
 14 25  1  0  0  0  0
 14 15  1  0  0  0  0
 15 16  1  0  0  0  0
 15 26  1  0  0  0  0
 16 23  1  0  0  0  0
 17 18  1  0  0  0  0
 17 16  2  0  0  0  0
 18 19  2  0  0  0  0
 20 18  1  0  0  0  0
 20 21  1  0  0  0  0
 21 28  1  0  0  0  0
 21 22  1  0  0  0  0
 22 29  1  0  0  0  0
 22 30  1  0  0  0  0
 23 22  1  0  0  0  0
 24 11  1  0  0  0  0
 27 21  1  0  0  0  0
 31 37  1  6  0  0  0
 31 36  1  0  0  0  0
 31  4  1  0  0  0  0
 32 31  1  0  0  0  0
 32 38  1  0  0  0  0
 32 33  1  0  0  0  0
 33 40  1  0  0  0  0
 34 33  1  0  0  0  0
 34 42  1  1  0  0  0
 35 44  1  0  0  0  0
 35 34  1  0  0  0  0
 35 36  1  0  0  0  0
 36 45  1  0  0  0  0
 39 32  1  0  0  0  0
 41 33  1  0  0  0  0
 43 35  1  0  0  0  0
 46 36  1  0  0  0  0
 47 50  1  0  0  0  0
 47 34  1  0  0  0  0
 48 47  1  0  0  0  0
 49 47  1  0  0  0  0
 50 52  2  0  0  0  0
 51 50  1  0  0  0  0
 53 51  1  0  0  0  0
 54 51  1  0  0  0  0
M  END
>  <MODEL>
5

>  <REMARK>
 VINA RESULT:    -8.871      2.516      3.491
 INTER + INTRA:         -10.814
 INTER:                  -9.959
 INTRA:                  -0.856
 UNBOUND:                 0.131
  Name = 
  4 active torsions:
  status: ('A' for Active; 'I' for Inactive)
    1  A    between atoms: N_10  and  C_11
    2  A    between atoms: C_14  and  C_15
    3  A    between atoms: C_18  and  C_19
    4  A    between atoms: C_19  and  C_20
                            x       y       z     vdW  Elec       q    Type
                         _______ _______ _______ _____ _____    ______ ____

>  <TORSDO>
F 4

$$$$
=
 OpenBabel07192307433D

 54 57  0  0  1  0  0  0  0  0999 V2000
    0.4570    9.9530   20.1250 C   0  0  0  0  0  0  0  0  0  0  0  0
    0.6090    8.9570   21.1030 C   0  0  0  0  0  0  0  0  0  0  0  0
    1.3720    7.8030   20.8670 C   0  0  0  0  0  0  0  0  0  0  0  0
    1.9970    7.5940   19.6350 C   0  0  0  0  0  0  0  0  0  0  0  0
    1.8300    8.5660   18.6450 C   0  0  0  0  0  0  0  0  0  0  0  0
    1.0690    9.7180   18.8860 C   0  0  0  0  0  0  0  0  0  0  0  0
    0.1330    9.0260   22.0750 H   0  0  0  0  0  0  0  0  0  0  0  0
    1.4570    7.0650   21.6610 H   0  0  0  0  0  0  0  0  0  0  0  0
    2.2840    8.4420   17.6640 H   0  0  0  0  0  0  0  0  0  0  0  0
    0.9680   10.4180   18.0580 H   0  0  0  0  0  0  0  0  0  0  0  0
   -3.3030   10.7310   17.7190 N   0  0  0  0  0  2  0  0  0  0  0  0
   -3.4930   11.6160   18.6330 C   0  0  0  0  0  0  0  0  0  0  0  0
   -4.7900   12.0640   18.7120 N   0  0  0  0  0  0  0  0  0  0  0  0
   -5.0890   12.7950   19.7300 C   0  0  0  0  0  3  0  0  0  0  0  0
   -4.2190   13.1650   20.7000 N   0  0  0  0  0  0  0  0  0  0  0  0
   -2.8830   12.8710   20.6030 C   0  0  0  0  0  0  0  0  0  0  0  0
   -2.4390   12.1170   19.5740 C   0  0  0  0  0  0  0  0  0  0  0  0
   -1.0240   11.7560   19.3080 C   0  0  0  0  0  0  0  0  0  0  0  0
   -0.5230   12.0030   18.2120 O   0  0  0  0  0  0  0  0  0  0  0  0
   -0.3440   11.1300   20.3550 N   0  0  0  0  0  0  0  0  0  0  0  0
   -0.3740   11.7430   21.6830 C   0  0  0  0  0  0  0  0  0  0  0  0
   -0.7470   13.2260   21.6540 C   0  0  0  0  0  0  0  0  0  0  0  0
   -2.1550   13.4260   21.6200 O   0  0  0  0  0  0  0  0  0  0  0  0
   -4.2200   10.6220   17.2660 H   0  0  0  0  0  0  0  0  0  0  0  0
   -6.1120   13.1830   19.8740 H   0  0  0  0  0  0  0  0  0  0  0  0
   -4.4810   13.8060   21.4380 H   0  0  0  0  0  0  0  0  0  0  0  0
   -1.0620   11.1660   22.3110 H   0  0  0  0  0  0  0  0  0  0  0  0
    0.6340   11.7010   22.1060 H   0  0  0  0  0  0  0  0  0  0  0  0
   -0.2640   13.7770   20.8370 H   0  0  0  0  0  0  0  0  0  0  0  0
   -0.4050   13.6860   22.5880 H   0  0  0  0  0  0  0  0  0  0  0  0
    2.8280    6.3540   19.3510 C   0  0  1  0  0  0  0  0  0  0  0  0
    2.2590    5.0870   20.0250 C   0  0  0  0  0  0  0  0  0  0  0  0
    1.6210    4.1200   19.0290 C   0  0  0  0  0  0  0  0  0  0  0  0
    2.5990    3.6670   17.9270 C   0  0  1  0  0  0  0  0  0  0  0  0
    3.6040    4.7740   17.5460 C   0  0  0  0  0  0  0  0  0  0  0  0
    3.0640    6.1700   17.8400 C   0  0  0  0  0  0  0  0  0  0  0  0
    3.8160    6.5140   19.8080 H   0  0  0  0  0  0  0  0  0  0  0  0
    1.5390    5.3390   20.8130 H   0  0  0  0  0  0  0  0  0  0  0  0
    3.0800    4.5600   20.5290 H   0  0  0  0  0  0  0  0  0  0  0  0
    0.7620    4.6120   18.5570 H   0  0  0  0  0  0  0  0  0  0  0  0
    1.2090    3.2560   19.5640 H   0  0  0  0  0  0  0  0  0  0  0  0
    1.9900    3.4420   17.0400 H   0  0  0  0  0  0  0  0  0  0  0  0
    4.5500    4.6420   18.0880 H   0  0  0  0  0  0  0  0  0  0  0  0
    3.8480    4.6970   16.4800 H   0  0  0  0  0  0  0  0  0  0  0  0
    2.1420    6.3220   17.2650 H   0  0  0  0  0  0  0  0  0  0  0  0
    3.7740    6.9250   17.4850 H   0  0  0  0  0  0  0  0  0  0  0  0
    3.3310    2.3760   18.3390 C   0  0  0  0  0  0  0  0  0  0  0  0
    3.9730    2.0370   17.5150 H   0  0  0  0  0  0  0  0  0  0  0  0
    2.6090    1.5770   18.5470 H   0  0  0  0  0  0  0  0  0  0  0  0
    4.2350    2.5520   19.5440 C   0  0  0  0  0  0  0  0  0  0  0  0
    5.4260    3.1570   19.2620 N   0  0  0  0  0  0  0  0  0  0  0  0
    3.9520    2.2270   20.6890 O   0  0  0  0  0  0  0  0  0  0  0  0
    6.0850    3.2500   20.0240 H   0  0  0  0  0  0  0  0  0  0  0  0
    5.7550    3.3020   18.3190 H   0  0  0  0  0  0  0  0  0  0  0  0
  1 20  1  0  0  0  0
  1  2  1  0  0  0  0
  2  7  1  0  0  0  0
  3  2  2  0  0  0  0
  3  8  1  0  0  0  0
  4  3  1  0  0  0  0
  5  6  1  0  0  0  0
  5  4  2  0  0  0  0
  6  1  2  0  0  0  0
  9  5  1  0  0  0  0
 10  6  1  0  0  0  0
 11 12  1  0  0  0  0
 12 13  2  0  0  0  0
 12 17  1  0  0  0  0
 13 14  1  0  0  0  0
 14 25  1  0  0  0  0
 14 15  1  0  0  0  0
 15 26  1  0  0  0  0
 16 15  1  0  0  0  0
 16 23  1  0  0  0  0
 17 16  2  0  0  0  0
 18 17  1  0  0  0  0
 18 20  1  0  0  0  0
 19 18  2  0  0  0  0
 20 21  1  0  0  0  0
 21 28  1  0  0  0  0
 21 27  1  0  0  0  0
 22 21  1  0  0  0  0
 22 30  1  0  0  0  0
 23 22  1  0  0  0  0
 24 11  1  0  0  0  0
 29 22  1  0  0  0  0
 31  4  1  0  0  0  0
 31 37  1  1  0  0  0
 31 32  1  0  0  0  0
 32 39  1  0  0  0  0
 32 38  1  0  0  0  0
 33 41  1  0  0  0  0
 33 32  1  0  0  0  0
 34 42  1  6  0  0  0
 34 47  1  0  0  0  0
 34 33  1  0  0  0  0
 35 36  1  0  0  0  0
 35 34  1  0  0  0  0
 35 43  1  0  0  0  0
 36 31  1  0  0  0  0
 40 33  1  0  0  0  0
 44 35  1  0  0  0  0
 45 36  1  0  0  0  0
 46 36  1  0  0  0  0
 47 49  1  0  0  0  0
 47 50  1  0  0  0  0
 48 47  1  0  0  0  0
 50 52  2  0  0  0  0
 51 50  1  0  0  0  0
 51 53  1  0  0  0  0
 54 51  1  0  0  0  0
M  END
>  <MODEL>
6

>  <REMARK>
 VINA RESULT:    -8.838      2.311      2.870
 INTER + INTRA:         -10.773
 INTER:                 -10.920
 INTRA:                   0.146
 UNBOUND:                 0.131
  Name = 
  4 active torsions:
  status: ('A' for Active; 'I' for Inactive)
    1  A    between atoms: N_10  and  C_11
    2  A    between atoms: C_14  and  C_15
    3  A    between atoms: C_18  and  C_19
    4  A    between atoms: C_19  and  C_20
                            x       y       z     vdW  Elec       q    Type
                         _______ _______ _______ _____ _____    ______ ____

>  <TORSDO>
F 4

$$$$
=
 OpenBabel07192307433D

 54 57  0  0  1  0  0  0  0  0999 V2000
    1.0890   10.6530   19.3840 C   0  0  0  0  0  0  0  0  0  0  0  0
    1.1140    9.6210   20.3350 C   0  0  0  0  0  0  0  0  0  0  0  0
    1.6280    8.3510   20.0310 C   0  0  0  0  0  0  0  0  0  0  0  0
    2.1200    8.0610   18.7560 C   0  0  0  0  0  0  0  0  0  0  0  0
    2.0750    9.0720   17.7930 C   0  0  0  0  0  0  0  0  0  0  0  0
    1.5620   10.3400   18.1010 C   0  0  0  0  0  0  0  0  0  0  0  0
    0.7250    9.7530   21.3390 H   0  0  0  0  0  0  0  0  0  0  0  0
    1.6260    7.5900   20.8080 H   0  0  0  0  0  0  0  0  0  0  0  0
    2.4310    8.8910   16.7810 H   0  0  0  0  0  0  0  0  0  0  0  0
    1.5400   11.0680   17.2910 H   0  0  0  0  0  0  0  0  0  0  0  0
   -1.4350   11.3330   23.0860 N   0  0  0  0  0  2  0  0  0  0  0  0
   -1.2390   12.5670   22.7770 C   0  0  0  0  0  0  0  0  0  0  0  0
   -1.4880   13.4430   23.8060 N   0  0  0  0  0  0  0  0  0  0  0  0
   -1.1220   14.6660   23.6270 C   0  0  0  0  0  3  0  0  0  0  0  0
   -0.5350   15.1410   22.5020 N   0  0  0  0  0  0  0  0  0  0  0  0
   -0.3910   14.3520   21.3900 C   0  0  0  0  0  0  0  0  0  0  0  0
   -0.7480   13.0510   21.4460 C   0  0  0  0  0  0  0  0  0  0  0  0
   -0.6960   12.0860   20.3190 C   0  0  0  0  0  0  0  0  0  0  0  0
   -1.7030   11.4550   20.0030 O   0  0  0  0  0  0  0  0  0  0  0  0
    0.5400   11.9520   19.6840 N   0  0  0  0  0  0  0  0  0  0  0  0
    1.2360   13.1580   19.2310 C   0  0  0  0  0  0  0  0  0  0  0  0
    0.3120   14.3690   19.0890 C   0  0  0  0  0  0  0  0  0  0  0  0
    0.1170   15.0450   20.3260 O   0  0  0  0  0  0  0  0  0  0  0  0
   -1.7640   11.3570   24.0600 H   0  0  0  0  0  0  0  0  0  0  0  0
   -1.2740   15.4280   24.4100 H   0  0  0  0  0  0  0  0  0  0  0  0
   -0.3380   16.1260   22.3780 H   0  0  0  0  0  0  0  0  0  0  0  0
    2.0600   13.3580   19.9260 H   0  0  0  0  0  0  0  0  0  0  0  0
    1.6350   12.9730   18.2300 H   0  0  0  0  0  0  0  0  0  0  0  0
   -0.6540   14.1240   18.6310 H   0  0  0  0  0  0  0  0  0  0  0  0
    0.7970   15.0970   18.4280 H   0  0  0  0  0  0  0  0  0  0  0  0
    2.6810    6.6950   18.3990 C   0  0  1  0  0  0  0  0  0  0  0  0
    3.7560    6.7610   17.2920 C   0  0  0  0  0  0  0  0  0  0  0  0
    5.1670    6.5070   17.8190 C   0  0  0  0  0  0  0  0  0  0  0  0
    5.3030    5.1430   18.5240 C   0  0  1  0  0  0  0  0  0  0  0  0
    4.0110    4.7330   19.2610 C   0  0  0  0  0  0  0  0  0  0  0  0
    3.1630    5.9400   19.6520 C   0  0  0  0  0  0  0  0  0  0  0  0
    1.8540    6.1060   17.9740 H   0  0  0  0  0  0  0  0  0  0  0  0
    3.7250    7.7190   16.7580 H   0  0  0  0  0  0  0  0  0  0  0  0
    3.5310    5.9930   16.5400 H   0  0  0  0  0  0  0  0  0  0  0  0
    5.4290    7.2990   18.5310 H   0  0  0  0  0  0  0  0  0  0  0  0
    5.8890    6.5960   16.9990 H   0  0  0  0  0  0  0  0  0  0  0  0
    6.0990    5.2550   19.2740 H   0  0  0  0  0  0  0  0  0  0  0  0
    3.4030    4.0650   18.6360 H   0  0  0  0  0  0  0  0  0  0  0  0
    4.2670    4.1630   20.1620 H   0  0  0  0  0  0  0  0  0  0  0  0
    3.7510    6.5880   20.3130 H   0  0  0  0  0  0  0  0  0  0  0  0
    2.2970    5.6110   20.2380 H   0  0  0  0  0  0  0  0  0  0  0  0
    5.7400    4.0500   17.5300 C   0  0  0  0  0  0  0  0  0  0  0  0
    4.9830    3.9440   16.7420 H   0  0  0  0  0  0  0  0  0  0  0  0
    5.8260    3.0830   18.0400 H   0  0  0  0  0  0  0  0  0  0  0  0
    7.0490    4.3590   16.8290 C   0  0  0  0  0  0  0  0  0  0  0  0
    8.1500    4.2300   17.6260 N   0  0  0  0  0  0  0  0  0  0  0  0
    7.1610    4.6660   15.6500 O   0  0  0  0  0  0  0  0  0  0  0  0
    9.0430    4.4750   17.2190 H   0  0  0  0  0  0  0  0  0  0  0  0
    8.0890    4.1250   18.6280 H   0  0  0  0  0  0  0  0  0  0  0  0
  1 20  1  0  0  0  0
  1  2  1  0  0  0  0
  2  7  1  0  0  0  0
  3  2  2  0  0  0  0
  3  8  1  0  0  0  0
  4  3  1  0  0  0  0
  5  6  1  0  0  0  0
  5  4  2  0  0  0  0
  6  1  2  0  0  0  0
  9  5  1  0  0  0  0
 10  6  1  0  0  0  0
 11 24  1  0  0  0  0
 12 11  1  0  0  0  0
 12 13  2  0  0  0  0
 14 13  1  0  0  0  0
 14 25  1  0  0  0  0
 15 14  1  0  0  0  0
 16 17  2  0  0  0  0
 16 15  1  0  0  0  0
 17 12  1  0  0  0  0
 18 17  1  0  0  0  0
 19 18  2  0  0  0  0
 20 18  1  0  0  0  0
 21 20  1  0  0  0  0
 21 27  1  0  0  0  0
 22 21  1  0  0  0  0
 22 23  1  0  0  0  0
 23 16  1  0  0  0  0
 26 15  1  0  0  0  0
 28 21  1  0  0  0  0
 29 22  1  0  0  0  0
 30 22  1  0  0  0  0
 31 37  1  6  0  0  0
 31  4  1  0  0  0  0
 31 36  1  0  0  0  0
 32 33  1  0  0  0  0
 32 31  1  0  0  0  0
 33 34  1  0  0  0  0
 33 40  1  0  0  0  0
 34 35  1  0  0  0  0
 34 42  1  1  0  0  0
 35 36  1  0  0  0  0
 35 44  1  0  0  0  0
 36 46  1  0  0  0  0
 36 45  1  0  0  0  0
 38 32  1  0  0  0  0
 39 32  1  0  0  0  0
 41 33  1  0  0  0  0
 43 35  1  0  0  0  0
 47 49  1  0  0  0  0
 47 34  1  0  0  0  0
 48 47  1  0  0  0  0
 50 47  1  0  0  0  0
 50 51  1  0  0  0  0
 51 54  1  0  0  0  0
 52 50  2  0  0  0  0
 53 51  1  0  0  0  0
M  END
>  <MODEL>
7

>  <REMARK>
 VINA RESULT:    -8.785      2.125      2.552
 INTER + INTRA:         -10.708
 INTER:                  -9.796
 INTRA:                  -0.912
 UNBOUND:                 0.131
  Name = 
  4 active torsions:
  status: ('A' for Active; 'I' for Inactive)
    1  A    between atoms: N_10  and  C_11
    2  A    between atoms: C_14  and  C_15
    3  A    between atoms: C_18  and  C_19
    4  A    between atoms: C_19  and  C_20
                            x       y       z     vdW  Elec       q    Type
                         _______ _______ _______ _____ _____    ______ ____

>  <TORSDO>
F 4

$$$$
=
 OpenBabel07192307433D

 54 57  0  0  1  0  0  0  0  0999 V2000
    0.2800   10.2150   20.2050 C   0  0  0  0  0  0  0  0  0  0  0  0
    1.0000    9.9010   19.0420 C   0  0  0  0  0  0  0  0  0  0  0  0
    1.6670    8.6750   18.8980 C   0  0  0  0  0  0  0  0  0  0  0  0
    1.6550    7.7240   19.9220 C   0  0  0  0  0  0  0  0  0  0  0  0
    0.9640    8.0390   21.0950 C   0  0  0  0  0  0  0  0  0  0  0  0
    0.2970    9.2630   21.2350 C   0  0  0  0  0  0  0  0  0  0  0  0
    1.0850   10.5930   18.2120 H   0  0  0  0  0  0  0  0  0  0  0  0
    2.2080    8.4830   17.9740 H   0  0  0  0  0  0  0  0  0  0  0  0
    0.9380    7.3390   21.9280 H   0  0  0  0  0  0  0  0  0  0  0  0
   -0.2000    9.4430   22.1870 H   0  0  0  0  0  0  0  0  0  0  0  0
   -3.7560   10.9980   18.2980 N   0  0  0  0  0  2  0  0  0  0  0  0
   -3.7310   12.0160   19.0840 C   0  0  0  0  0  0  0  0  0  0  0  0
   -4.9640   12.5910   19.2860 N   0  0  0  0  0  0  0  0  0  0  0  0
   -5.0410   13.4840   20.2130 C   0  0  0  0  0  3  0  0  0  0  0  0
   -4.0010   13.9030   20.9730 N   0  0  0  0  0  0  0  0  0  0  0  0
   -2.7220   13.4740   20.7220 C   0  0  0  0  0  0  0  0  0  0  0  0
   -2.5060   12.5440   19.7680 C   0  0  0  0  0  0  0  0  0  0  0  0
   -1.1820   12.0160   19.3510 C   0  0  0  0  0  0  0  0  0  0  0  0
   -0.8490   12.0580   18.1680 O   0  0  0  0  0  0  0  0  0  0  0  0
   -0.3880   11.4830   20.3680 N   0  0  0  0  0  0  0  0  0  0  0  0
   -0.1580   12.2780   21.5750 C   0  0  0  0  0  0  0  0  0  0  0  0
   -0.4250   13.7710   21.3740 C   0  0  0  0  0  0  0  0  0  0  0  0
   -1.8020   14.0950   21.5210 O   0  0  0  0  0  0  0  0  0  0  0  0
   -4.7390   10.9120   18.0110 H   0  0  0  0  0  0  0  0  0  0  0  0
   -5.9970   13.9820   20.4460 H   0  0  0  0  0  0  0  0  0  0  0  0
   -4.0940   14.6640   21.6330 H   0  0  0  0  0  0  0  0  0  0  0  0
   -0.7740   11.8620   22.3800 H   0  0  0  0  0  0  0  0  0  0  0  0
    0.9000   12.2010   21.8430 H   0  0  0  0  0  0  0  0  0  0  0  0
   -0.0430   14.1530   20.4190 H   0  0  0  0  0  0  0  0  0  0  0  0
    0.0960   14.3240   22.1640 H   0  0  0  0  0  0  0  0  0  0  0  0
    2.3690    6.3900   19.7940 C   0  0  1  0  0  0  0  0  0  0  0  0
    1.8780    5.3480   20.8220 C   0  0  0  0  0  0  0  0  0  0  0  0
    1.0330    4.2440   20.1910 C   0  0  0  0  0  0  0  0  0  0  0  0
    1.7790    3.4850   19.0760 C   0  0  1  0  0  0  0  0  0  0  0  0
    2.7450    4.3990   18.2920 C   0  0  0  0  0  0  0  0  0  0  0  0
    2.3240    5.8640   18.3470 C   0  0  0  0  0  0  0  0  0  0  0  0
    3.4290    6.5650   20.0330 H   0  0  0  0  0  0  0  0  0  0  0  0
    1.3220    5.8220   21.6400 H   0  0  0  0  0  0  0  0  0  0  0  0
    2.7540    4.8790   21.2900 H   0  0  0  0  0  0  0  0  0  0  0  0
    0.1250    4.6890   19.7680 H   0  0  0  0  0  0  0  0  0  0  0  0
    0.6880    3.5520   20.9690 H   0  0  0  0  0  0  0  0  0  0  0  0
    1.0130    3.1230   18.3750 H   0  0  0  0  0  0  0  0  0  0  0  0
    3.7660    4.3120   18.6870 H   0  0  0  0  0  0  0  0  0  0  0  0
    2.7910    4.0740   17.2460 H   0  0  0  0  0  0  0  0  0  0  0  0
    1.3220    5.9620   17.9120 H   0  0  0  0  0  0  0  0  0  0  0  0
    2.9900    6.4660   17.7180 H   0  0  0  0  0  0  0  0  0  0  0  0
    2.5200    2.2590   19.6430 C   0  0  0  0  0  0  0  0  0  0  0  0
    1.8660    1.3790   19.5980 H   0  0  0  0  0  0  0  0  0  0  0  0
    2.7810    2.4250   20.6950 H   0  0  0  0  0  0  0  0  0  0  0  0
    3.7760    1.9020   18.8710 C   0  0  0  0  0  0  0  0  0  0  0  0
    4.9340    2.1300   19.5580 N   0  0  0  0  0  0  0  0  0  0  0  0
    3.7970    1.4190   17.7470 O   0  0  0  0  0  0  0  0  0  0  0  0
    5.8010    1.9560   19.0660 H   0  0  0  0  0  0  0  0  0  0  0  0
    4.9640    2.6590   20.4170 H   0  0  0  0  0  0  0  0  0  0  0  0
  1 20  1  0  0  0  0
  1  6  1  0  0  0  0
  2  1  2  0  0  0  0
  3  2  1  0  0  0  0
  3  4  2  0  0  0  0
  4  5  1  0  0  0  0
  5  6  2  0  0  0  0
  5  9  1  0  0  0  0
  6 10  1  0  0  0  0
  7  2  1  0  0  0  0
  8  3  1  0  0  0  0
 11 12  1  0  0  0  0
 12 13  2  0  0  0  0
 12 17  1  0  0  0  0
 13 14  1  0  0  0  0
 14 25  1  0  0  0  0
 14 15  1  0  0  0  0
 15 26  1  0  0  0  0
 16 15  1  0  0  0  0
 16 23  1  0  0  0  0
 17 16  2  0  0  0  0
 18 17  1  0  0  0  0
 18 20  1  0  0  0  0
 19 18  2  0  0  0  0
 20 21  1  0  0  0  0
 21 28  1  0  0  0  0
 21 27  1  0  0  0  0
 22 23  1  0  0  0  0
 22 21  1  0  0  0  0
 22 30  1  0  0  0  0
 24 11  1  0  0  0  0
 29 22  1  0  0  0  0
 31  4  1  0  0  0  0
 31 37  1  1  0  0  0
 31 32  1  0  0  0  0
 32 39  1  0  0  0  0
 32 38  1  0  0  0  0
 33 32  1  0  0  0  0
 33 41  1  0  0  0  0
 34 42  1  6  0  0  0
 34 47  1  0  0  0  0
 34 33  1  0  0  0  0
 35 36  1  0  0  0  0
 35 43  1  0  0  0  0
 35 34  1  0  0  0  0
 36 31  1  0  0  0  0
 40 33  1  0  0  0  0
 44 35  1  0  0  0  0
 45 36  1  0  0  0  0
 46 36  1  0  0  0  0
 47 49  1  0  0  0  0
 48 47  1  0  0  0  0
 50 51  1  0  0  0  0
 50 47  1  0  0  0  0
 51 54  1  0  0  0  0
 52 50  2  0  0  0  0
 53 51  1  0  0  0  0
M  END
>  <MODEL>
8

>  <REMARK>
 VINA RESULT:    -8.742      2.270      2.772
 INTER + INTRA:         -10.655
 INTER:                 -10.327
 INTRA:                  -0.327
 UNBOUND:                 0.131
  Name = 
  4 active torsions:
  status: ('A' for Active; 'I' for Inactive)
    1  A    between atoms: N_10  and  C_11
    2  A    between atoms: C_14  and  C_15
    3  A    between atoms: C_18  and  C_19
    4  A    between atoms: C_19  and  C_20
                            x       y       z     vdW  Elec       q    Type
                         _______ _______ _______ _____ _____    ______ ____

>  <TORSDO>
F 4

$$$$
=
 OpenBabel07192307433D

 54 57  0  0  1  0  0  0  0  0999 V2000
    1.1150    9.1870   19.0360 C   0  0  0  0  0  0  0  0  0  0  0  0
    1.4290    8.1780   19.9610 C   0  0  0  0  0  0  0  0  0  0  0  0
    2.3340    7.1510   19.6510 C   0  0  0  0  0  0  0  0  0  0  0  0
    2.9440    7.0850   18.3960 C   0  0  0  0  0  0  0  0  0  0  0  0
    2.6180    8.0680   17.4590 C   0  0  0  0  0  0  0  0  0  0  0  0
    1.7160    9.0940   17.7720 C   0  0  0  0  0  0  0  0  0  0  0  0
    0.9780    8.1380   20.9460 H   0  0  0  0  0  0  0  0  0  0  0  0
    2.5420    6.3970   20.4060 H   0  0  0  0  0  0  0  0  0  0  0  0
    3.0550    8.0520   16.4620 H   0  0  0  0  0  0  0  0  0  0  0  0
    1.4960    9.8100   16.9820 H   0  0  0  0  0  0  0  0  0  0  0  0
    2.4810   13.1660   20.7220 N   0  0  0  0  0  2  0  0  0  0  0  0
    1.2770   13.5050   20.4220 C   0  0  0  0  0  0  0  0  0  0  0  0
    1.0820   14.8650   20.3590 N   0  0  0  0  0  0  0  0  0  0  0  0
   -0.0410   15.2670   19.8710 C   0  0  0  0  0  3  0  0  0  0  0  0
   -1.0350   14.4520   19.4430 N   0  0  0  0  0  0  0  0  0  0  0  0
   -0.9600   13.0930   19.6130 C   0  0  0  0  0  0  0  0  0  0  0  0
    0.1640   12.5460   20.1250 C   0  0  0  0  0  0  0  0  0  0  0  0
    0.3780   11.1050   20.4110 C   0  0  0  0  0  0  0  0  0  0  0  0
    0.7260   10.7470   21.5340 O   0  0  0  0  0  0  0  0  0  0  0  0
    0.1690   10.2320   19.3410 N   0  0  0  0  0  0  0  0  0  0  0  0
   -1.0810   10.3250   18.5850 C   0  0  0  0  0  0  0  0  0  0  0  0
   -2.1940   11.0440   19.3490 C   0  0  0  0  0  0  0  0  0  0  0  0
   -2.1070   12.4590   19.2220 O   0  0  0  0  0  0  0  0  0  0  0  0
    2.9770   14.0560   20.8600 H   0  0  0  0  0  0  0  0  0  0  0  0
   -0.2680   16.3420   19.7730 H   0  0  0  0  0  0  0  0  0  0  0  0
   -1.9310   14.8150   19.1420 H   0  0  0  0  0  0  0  0  0  0  0  0
   -0.8660   10.8140   17.6290 H   0  0  0  0  0  0  0  0  0  0  0  0
   -1.4540    9.3120   18.4060 H   0  0  0  0  0  0  0  0  0  0  0  0
   -2.2460   10.7590   20.4070 H   0  0  0  0  0  0  0  0  0  0  0  0
   -3.1550   10.7660   18.9020 H   0  0  0  0  0  0  0  0  0  0  0  0
    3.9260    5.9830   18.0330 C   0  0  1  0  0  0  0  0  0  0  0  0
    4.9430    6.4210   16.9570 C   0  0  0  0  0  0  0  0  0  0  0  0
    6.3490    6.6260   17.5160 C   0  0  0  0  0  0  0  0  0  0  0  0
    6.9070    5.3640   18.2040 C   0  0  1  0  0  0  0  0  0  0  0  0
    5.8030    4.5400   18.9000 C   0  0  0  0  0  0  0  0  0  0  0  0
    4.6020    5.3970   19.2860 C   0  0  0  0  0  0  0  0  0  0  0  0
    3.3450    5.1680   17.5770 H   0  0  0  0  0  0  0  0  0  0  0  0
    4.6130    7.3280   16.4360 H   0  0  0  0  0  0  0  0  0  0  0  0
    4.9960    5.6390   16.1870 H   0  0  0  0  0  0  0  0  0  0  0  0
    6.3250    7.4430   18.2470 H   0  0  0  0  0  0  0  0  0  0  0  0
    7.0200    6.9630   16.7180 H   0  0  0  0  0  0  0  0  0  0  0  0
    7.6080    5.7110   18.9760 H   0  0  0  0  0  0  0  0  0  0  0  0
    5.4590    3.7260   18.2480 H   0  0  0  0  0  0  0  0  0  0  0  0
    6.2130    4.0630   19.7980 H   0  0  0  0  0  0  0  0  0  0  0  0
    4.9340    6.1850   19.9730 H   0  0  0  0  0  0  0  0  0  0  0  0
    3.8780    4.7910   19.8440 H   0  0  0  0  0  0  0  0  0  0  0  0
    7.6950    4.4960   17.2050 C   0  0  0  0  0  0  0  0  0  0  0  0
    7.7750    3.4710   17.5890 H   0  0  0  0  0  0  0  0  0  0  0  0
    8.7130    4.8840   17.0830 H   0  0  0  0  0  0  0  0  0  0  0  0
    7.0370    4.3940   15.8420 C   0  0  0  0  0  0  0  0  0  0  0  0
    7.6210    5.1710   14.8840 N   0  0  0  0  0  0  0  0  0  0  0  0
    6.0890    3.6690   15.5720 O   0  0  0  0  0  0  0  0  0  0  0  0
    7.1860    5.1770   13.9700 H   0  0  0  0  0  0  0  0  0  0  0  0
    8.3010    5.8850   15.0990 H   0  0  0  0  0  0  0  0  0  0  0  0
  1 20  1  0  0  0  0
  1  2  1  0  0  0  0
  2  7  1  0  0  0  0
  3  2  2  0  0  0  0
  3  8  1  0  0  0  0
  4  3  1  0  0  0  0
  5  6  1  0  0  0  0
  5  4  2  0  0  0  0
  6  1  2  0  0  0  0
  9  5  1  0  0  0  0
 10  6  1  0  0  0  0
 11 24  1  0  0  0  0
 12 11  1  0  0  0  0
 13 12  2  0  0  0  0
 14 13  1  0  0  0  0
 15 16  1  0  0  0  0
 15 14  1  0  0  0  0
 16 17  2  0  0  0  0
 17 18  1  0  0  0  0
 17 12  1  0  0  0  0
 18 19  2  0  0  0  0
 20 18  1  0  0  0  0
 21 20  1  0  0  0  0
 21 22  1  0  0  0  0
 22 29  1  0  0  0  0
 23 22  1  0  0  0  0
 23 16  1  0  0  0  0
 25 14  1  0  0  0  0
 26 15  1  0  0  0  0
 27 21  1  0  0  0  0
 28 21  1  0  0  0  0
 30 22  1  0  0  0  0
 31 37  1  6  0  0  0
 31  4  1  0  0  0  0
 31 36  1  0  0  0  0
 32 33  1  0  0  0  0
 32 31  1  0  0  0  0
 33 34  1  0  0  0  0
 33 40  1  0  0  0  0
 34 35  1  0  0  0  0
 34 42  1  1  0  0  0
 35 36  1  0  0  0  0
 35 44  1  0  0  0  0
 36 46  1  0  0  0  0
 36 45  1  0  0  0  0
 38 32  1  0  0  0  0
 39 32  1  0  0  0  0
 41 33  1  0  0  0  0
 43 35  1  0  0  0  0
 47 48  1  0  0  0  0
 47 34  1  0  0  0  0
 49 47  1  0  0  0  0
 50 47  1  0  0  0  0
 51 54  1  0  0  0  0
 51 50  1  0  0  0  0
 52 50  2  0  0  0  0
 53 51  1  0  0  0  0
M  END
>  <MODEL>
9

>  <REMARK>
 VINA RESULT:    -8.718      2.880      3.664
 INTER + INTRA:         -10.625
 INTER:                 -10.495
 INTRA:                  -0.130
 UNBOUND:                 0.131
  Name = 
  4 active torsions:
  status: ('A' for Active; 'I' for Inactive)
    1  A    between atoms: N_10  and  C_11
    2  A    between atoms: C_14  and  C_15
    3  A    between atoms: C_18  and  C_19
    4  A    between atoms: C_19  and  C_20
                            x       y       z     vdW  Elec       q    Type
                         _______ _______ _______ _____ _____    ______ ____

>  <TORSDO>
F 4

$$$$
=
 OpenBabel07192307433D

 54 57  0  0  1  0  0  0  0  0999 V2000
    1.3000    9.7170   19.5500 C   0  0  0  0  0  0  0  0  0  0  0  0
    1.1980    8.8680   20.6630 C   0  0  0  0  0  0  0  0  0  0  0  0
    1.6210    7.5300   20.6090 C   0  0  0  0  0  0  0  0  0  0  0  0
    2.1450    6.9880   19.4330 C   0  0  0  0  0  0  0  0  0  0  0  0
    2.2260    7.8180   18.3110 C   0  0  0  0  0  0  0  0  0  0  0  0
    1.8040    9.1530   18.3690 C   0  0  0  0  0  0  0  0  0  0  0  0
    0.7760    9.2000   21.6040 H   0  0  0  0  0  0  0  0  0  0  0  0
    1.5210    6.9180   21.5020 H   0  0  0  0  0  0  0  0  0  0  0  0
    2.6120    7.4380   17.3670 H   0  0  0  0  0  0  0  0  0  0  0  0
    1.8780    9.7290   17.4480 H   0  0  0  0  0  0  0  0  0  0  0  0
   -1.2280   11.2410   22.9890 N   0  0  0  0  0  2  0  0  0  0  0  0
   -0.9350   12.3800   22.4670 C   0  0  0  0  0  0  0  0  0  0  0  0
   -1.1350   13.4460   23.3120 N   0  0  0  0  0  0  0  0  0  0  0  0
   -0.6750   14.5860   22.9260 C   0  0  0  0  0  3  0  0  0  0  0  0
   -0.0350   14.8050   21.7510 N   0  0  0  0  0  0  0  0  0  0  0  0
    0.0680   13.8170   20.8060 C   0  0  0  0  0  0  0  0  0  0  0  0
   -0.3870   12.5760   21.0860 C   0  0  0  0  0  0  0  0  0  0  0  0
   -0.3880   11.4200   20.1540 C   0  0  0  0  0  0  0  0  0  0  0  0
   -1.4340   10.8150   19.9280 O   0  0  0  0  0  0  0  0  0  0  0  0
    0.8460   11.0850   19.5920 N   0  0  0  0  0  0  0  0  0  0  0  0
    1.6380   12.1360   18.9500 C   0  0  0  0  0  0  0  0  0  0  0  0
    0.8100   13.3620   18.5620 C   0  0  0  0  0  0  0  0  0  0  0  0
    0.6450   14.2650   19.6490 O   0  0  0  0  0  0  0  0  0  0  0  0
   -1.5710   11.4660   23.9310 H   0  0  0  0  0  0  0  0  0  0  0  0
   -0.7830   15.4870   23.5520 H   0  0  0  0  0  0  0  0  0  0  0  0
    0.2370   15.7330   21.4560 H   0  0  0  0  0  0  0  0  0  0  0  0
    2.4620   12.4000   19.6210 H   0  0  0  0  0  0  0  0  0  0  0  0
    2.0380   11.7420   18.0110 H   0  0  0  0  0  0  0  0  0  0  0  0
   -0.1640   13.1060   18.1270 H   0  0  0  0  0  0  0  0  0  0  0  0
    1.3590   13.9200   17.7950 H   0  0  0  0  0  0  0  0  0  0  0  0
    2.6090    5.5440   19.3460 C   0  0  1  0  0  0  0  0  0  0  0  0
    1.9490    4.7730   18.1830 C   0  0  0  0  0  0  0  0  0  0  0  0
    2.9130    4.4940   17.0320 C   0  0  0  0  0  0  0  0  0  0  0  0
    4.1570    3.6980   17.4760 C   0  0  1  0  0  0  0  0  0  0  0  0
    4.5940    4.0490   18.9140 C   0  0  0  0  0  0  0  0  0  0  0  0
    4.1460    5.4480   19.3270 C   0  0  0  0  0  0  0  0  0  0  0  0
    2.2730    5.0400   20.2650 H   0  0  0  0  0  0  0  0  0  0  0  0
    1.0610    5.2960   17.8060 H   0  0  0  0  0  0  0  0  0  0  0  0
    1.5870    3.8090   18.5640 H   0  0  0  0  0  0  0  0  0  0  0  0
    3.2410    5.4490   16.6030 H   0  0  0  0  0  0  0  0  0  0  0  0
    2.3850    3.9730   16.2250 H   0  0  0  0  0  0  0  0  0  0  0  0
    4.9720    3.9840   16.7950 H   0  0  0  0  0  0  0  0  0  0  0  0
    4.1850    3.3240   19.6300 H   0  0  0  0  0  0  0  0  0  0  0  0
    5.6850    3.9800   18.9930 H   0  0  0  0  0  0  0  0  0  0  0  0
    4.5890    6.1800   18.6390 H   0  0  0  0  0  0  0  0  0  0  0  0
    4.5410    5.6860   20.3210 H   0  0  0  0  0  0  0  0  0  0  0  0
    3.9240    2.1830   17.3260 C   0  0  0  0  0  0  0  0  0  0  0  0
    4.8440    1.7000   16.9750 H   0  0  0  0  0  0  0  0  0  0  0  0
    3.1430    1.9890   16.5810 H   0  0  0  0  0  0  0  0  0  0  0  0
    3.5480    1.4980   18.6260 C   0  0  0  0  0  0  0  0  0  0  0  0
    4.5160    0.6710   19.1190 N   0  0  0  0  0  0  0  0  0  0  0  0
    2.4990    1.6670   19.2330 O   0  0  0  0  0  0  0  0  0  0  0  0
    4.2930    0.1510   19.9570 H   0  0  0  0  0  0  0  0  0  0  0  0
    5.3230    0.3940   18.5790 H   0  0  0  0  0  0  0  0  0  0  0  0
  1 20  1  0  0  0  0
  1  2  1  0  0  0  0
  2  7  1  0  0  0  0
  3  2  2  0  0  0  0
  3  8  1  0  0  0  0
  4  3  1  0  0  0  0
  5  6  1  0  0  0  0
  5  4  2  0  0  0  0
  6  1  2  0  0  0  0
  9  5  1  0  0  0  0
 10  6  1  0  0  0  0
 11 24  1  0  0  0  0
 12 11  1  0  0  0  0
 12 13  2  0  0  0  0
 14 13  1  0  0  0  0
 14 25  1  0  0  0  0
 15 14  1  0  0  0  0
 16 17  2  0  0  0  0
 16 15  1  0  0  0  0
 17 12  1  0  0  0  0
 18 17  1  0  0  0  0
 19 18  2  0  0  0  0
 20 18  1  0  0  0  0
 21 20  1  0  0  0  0
 21 27  1  0  0  0  0
 22 21  1  0  0  0  0
 22 23  1  0  0  0  0
 23 16  1  0  0  0  0
 26 15  1  0  0  0  0
 28 21  1  0  0  0  0
 29 22  1  0  0  0  0
 30 22  1  0  0  0  0
 31  4  1  0  0  0  0
 31 37  1  1  0  0  0
 32 39  1  0  0  0  0
 32 31  1  0  0  0  0
 33 34  1  0  0  0  0
 33 32  1  0  0  0  0
 34 42  1  6  0  0  0
 34 35  1  0  0  0  0
 35 44  1  0  0  0  0
 35 36  1  0  0  0  0
 35 43  1  0  0  0  0
 36 31  1  0  0  0  0
 36 46  1  0  0  0  0
 38 32  1  0  0  0  0
 40 33  1  0  0  0  0
 41 33  1  0  0  0  0
 45 36  1  0  0  0  0
 47 34  1  0  0  0  0
 47 50  1  0  0  0  0
 48 47  1  0  0  0  0
 49 47  1  0  0  0  0
 50 51  1  0  0  0  0
 50 52  2  0  0  0  0
 51 53  1  0  0  0  0
 54 51  1  0  0  0  0
M  END
>  <MODEL>
10

>  <REMARK>
 VINA RESULT:    -8.456      0.956      1.397
 INTER + INTRA:         -10.302
 INTER:                  -9.602
 INTRA:                  -0.701
 UNBOUND:                 0.131
  Name = 
  4 active torsions:
  status: ('A' for Active; 'I' for Inactive)
    1  A    between atoms: N_10  and  C_11
    2  A    between atoms: C_14  and  C_15
    3  A    between atoms: C_18  and  C_19
    4  A    between atoms: C_19  and  C_20
                            x       y       z     vdW  Elec       q    Type
                         _______ _______ _______ _____ _____    ______ ____

>  <TORSDO>
F 4

$$$$
=
 OpenBabel07192307433D

 54 57  0  0  1  0  0  0  0  0999 V2000
    0.9370   10.5890   19.5340 C   0  0  0  0  0  0  0  0  0  0  0  0
    1.4990   10.4370   18.2560 C   0  0  0  0  0  0  0  0  0  0  0  0
    2.0270    9.2110   17.8250 C   0  0  0  0  0  0  0  0  0  0  0  0
    2.0290    8.0940   18.6640 C   0  0  0  0  0  0  0  0  0  0  0  0
    1.4980    8.2410   19.9480 C   0  0  0  0  0  0  0  0  0  0  0  0
    0.9690    9.4670   20.3750 C   0  0  0  0  0  0  0  0  0  0  0  0
    1.5630   11.2610   17.5540 H   0  0  0  0  0  0  0  0  0  0  0  0
    2.4470    9.1490   16.8240 H   0  0  0  0  0  0  0  0  0  0  0  0
    1.4910    7.4050   20.6450 H   0  0  0  0  0  0  0  0  0  0  0  0
    0.5930    9.5080   21.3960 H   0  0  0  0  0  0  0  0  0  0  0  0
   -3.4420   11.6380   19.0140 N   0  0  0  0  0  2  0  0  0  0  0  0
   -3.1300   12.5810   19.8310 C   0  0  0  0  0  0  0  0  0  0  0  0
   -4.2130   13.1650   20.4430 N   0  0  0  0  0  0  0  0  0  0  0  0
   -3.9630   13.9730   21.4160 C   0  0  0  0  0  3  0  0  0  0  0  0
   -2.7220   14.2960   21.8540 N   0  0  0  0  0  0  0  0  0  0  0  0
   -1.6020   13.8600   21.1930 C   0  0  0  0  0  0  0  0  0  0  0  0
   -1.7310   13.0140   20.1480 C   0  0  0  0  0  0  0  0  0  0  0  0
   -0.6220   12.4940   19.3090 C   0  0  0  0  0  0  0  0  0  0  0  0
   -0.6590   12.6340   18.0880 O   0  0  0  0  0  0  0  0  0  0  0  0
    0.4140   11.8530   19.9910 N   0  0  0  0  0  0  0  0  0  0  0  0
    1.0370   12.5300   21.1290 C   0  0  0  0  0  0  0  0  0  0  0  0
    0.7970   14.0410   21.1350 C   0  0  0  0  0  0  0  0  0  0  0  0
   -0.4540   14.3850   21.7200 O   0  0  0  0  0  0  0  0  0  0  0  0
   -4.4690   11.6030   19.0330 H   0  0  0  0  0  0  0  0  0  0  0  0
   -4.7770   14.4710   21.9680 H   0  0  0  0  0  0  0  0  0  0  0  0
   -2.5730   14.9970   22.5680 H   0  0  0  0  0  0  0  0  0  0  0  0
    0.6710   12.0590   22.0480 H   0  0  0  0  0  0  0  0  0  0  0  0
    2.1210   12.4040   21.0560 H   0  0  0  0  0  0  0  0  0  0  0  0
    0.8930   14.4980   20.1430 H   0  0  0  0  0  0  0  0  0  0  0  0
    1.5590   14.5080   21.7700 H   0  0  0  0  0  0  0  0  0  0  0  0
    2.5960    6.7540   18.2250 C   0  0  1  0  0  0  0  0  0  0  0  0
    3.7310    6.8970   17.1890 C   0  0  0  0  0  0  0  0  0  0  0  0
    5.1080    6.5790   17.7690 C   0  0  0  0  0  0  0  0  0  0  0  0
    5.1910    5.1580   18.3630 C   0  0  1  0  0  0  0  0  0  0  0  0
    3.8550    4.7080   18.9910 C   0  0  0  0  0  0  0  0  0  0  0  0
    2.9990    5.8900   19.4340 C   0  0  0  0  0  0  0  0  0  0  0  0
    1.7880    6.2150   17.7060 H   0  0  0  0  0  0  0  0  0  0  0  0
    3.7400    7.8960   16.7360 H   0  0  0  0  0  0  0  0  0  0  0  0
    3.5420    6.1980   16.3630 H   0  0  0  0  0  0  0  0  0  0  0  0
    5.3380    7.3040   18.5580 H   0  0  0  0  0  0  0  0  0  0  0  0
    5.8760    6.7240   17.0000 H   0  0  0  0  0  0  0  0  0  0  0  0
    5.9450    5.1960   19.1620 H   0  0  0  0  0  0  0  0  0  0  0  0
    3.2770    4.1040   18.2780 H   0  0  0  0  0  0  0  0  0  0  0  0
    4.0540    4.0610   19.8520 H   0  0  0  0  0  0  0  0  0  0  0  0
    3.5550    6.4710   20.1790 H   0  0  0  0  0  0  0  0  0  0  0  0
    2.0980    5.5270   19.9420 H   0  0  0  0  0  0  0  0  0  0  0  0
    5.6710    4.1460   17.3060 C   0  0  0  0  0  0  0  0  0  0  0  0
    5.0010    4.1720   16.4380 H   0  0  0  0  0  0  0  0  0  0  0  0
    5.6470    3.1290   17.7140 H   0  0  0  0  0  0  0  0  0  0  0  0
    7.0650    4.4360   16.7820 C   0  0  0  0  0  0  0  0  0  0  0  0
    8.0580    4.2180   17.6920 N   0  0  0  0  0  0  0  0  0  0  0  0
    7.3260    4.8000   15.6430 O   0  0  0  0  0  0  0  0  0  0  0  0
    9.0020    4.4460   17.4070 H   0  0  0  0  0  0  0  0  0  0  0  0
    7.8750    4.0630   18.6730 H   0  0  0  0  0  0  0  0  0  0  0  0
  1 20  1  0  0  0  0
  1  6  1  0  0  0  0
  2  1  2  0  0  0  0
  3  2  1  0  0  0  0
  3  4  2  0  0  0  0
  4  5  1  0  0  0  0
  5  6  2  0  0  0  0
  5  9  1  0  0  0  0
  6 10  1  0  0  0  0
  7  2  1  0  0  0  0
  8  3  1  0  0  0  0
 11 24  1  0  0  0  0
 11 12  1  0  0  0  0
 12 17  1  0  0  0  0
 12 13  2  0  0  0  0
 13 14  1  0  0  0  0
 14 15  1  0  0  0  0
 14 25  1  0  0  0  0
 15 26  1  0  0  0  0
 16 23  1  0  0  0  0
 16 15  1  0  0  0  0
 17 16  2  0  0  0  0
 18 20  1  0  0  0  0
 18 17  1  0  0  0  0
 19 18  2  0  0  0  0
 20 21  1  0  0  0  0
 21 22  1  0  0  0  0
 21 27  1  0  0  0  0
 22 23  1  0  0  0  0
 22 30  1  0  0  0  0
 28 21  1  0  0  0  0
 29 22  1  0  0  0  0
 31 37  1  6  0  0  0
 31  4  1  0  0  0  0
 31 36  1  0  0  0  0
 32 33  1  0  0  0  0
 32 31  1  0  0  0  0
 33 34  1  0  0  0  0
 33 40  1  0  0  0  0
 34 35  1  0  0  0  0
 34 42  1  1  0  0  0
 35 36  1  0  0  0  0
 35 44  1  0  0  0  0
 36 46  1  0  0  0  0
 36 45  1  0  0  0  0
 38 32  1  0  0  0  0
 39 32  1  0  0  0  0
 41 33  1  0  0  0  0
 43 35  1  0  0  0  0
 47 49  1  0  0  0  0
 47 34  1  0  0  0  0
 48 47  1  0  0  0  0
 50 47  1  0  0  0  0
 50 51  1  0  0  0  0
 51 54  1  0  0  0  0
 52 50  2  0  0  0  0
 53 51  1  0  0  0  0
M  END
>  <MODEL>
11

>  <REMARK>
 VINA RESULT:    -8.447      2.694      3.282
 INTER + INTRA:         -10.291
 INTER:                  -9.628
 INTRA:                  -0.663
 UNBOUND:                 0.131
  Name = 
  4 active torsions:
  status: ('A' for Active; 'I' for Inactive)
    1  A    between atoms: N_10  and  C_11
    2  A    between atoms: C_14  and  C_15
    3  A    between atoms: C_18  and  C_19
    4  A    between atoms: C_19  and  C_20
                            x       y       z     vdW  Elec       q    Type
                         _______ _______ _______ _____ _____    ______ ____

>  <TORSDO>
F 4

$$$$
=
 OpenBabel07192307433D

 54 57  0  0  1  0  0  0  0  0999 V2000
    2.2320    7.5400   19.2360 C   0  0  0  0  0  0  0  0  0  0  0  0
    1.5980    8.0340   20.3860 C   0  0  0  0  0  0  0  0  0  0  0  0
    0.7900    9.1810   20.3460 C   0  0  0  0  0  0  0  0  0  0  0  0
    0.6000    9.8860   19.1550 C   0  0  0  0  0  0  0  0  0  0  0  0
    1.2490    9.4180   18.0090 C   0  0  0  0  0  0  0  0  0  0  0  0
    2.0540    8.2710   18.0530 C   0  0  0  0  0  0  0  0  0  0  0  0
    1.7160    7.5650   21.3570 H   0  0  0  0  0  0  0  0  0  0  0  0
    0.3200    9.5180   21.2670 H   0  0  0  0  0  0  0  0  0  0  0  0
    1.1460    9.9410   17.0610 H   0  0  0  0  0  0  0  0  0  0  0  0
    2.5440    7.9830   17.1240 H   0  0  0  0  0  0  0  0  0  0  0  0
    0.4980    3.3880   19.7790 N   0  0  0  0  0  2  0  0  0  0  0  0
    1.6860    3.0390   19.4290 C   0  0  0  0  0  0  0  0  0  0  0  0
    1.7810    1.7320   19.0140 N   0  0  0  0  0  0  0  0  0  0  0  0
    2.8910    1.3780   18.4630 C   0  0  0  0  0  3  0  0  0  0  0  0
    3.9620    2.1890   18.2890 N   0  0  0  0  0  0  0  0  0  0  0  0
    3.9810    3.4580   18.8100 C   0  0  0  0  0  0  0  0  0  0  0  0
    2.8800    3.9450   19.4210 C   0  0  0  0  0  0  0  0  0  0  0  0
    2.7620    5.2740   20.0720 C   0  0  0  0  0  0  0  0  0  0  0  0
    2.3920    5.3550   21.2410 O   0  0  0  0  0  0  0  0  0  0  0  0
    3.0830    6.3760   19.2760 N   0  0  0  0  0  0  0  0  0  0  0  0
    4.3550    6.3780   18.5520 C   0  0  0  0  0  0  0  0  0  0  0  0
    5.3760    5.3930   19.1250 C   0  0  0  0  0  0  0  0  0  0  0  0
    5.1890    4.0740   18.6260 O   0  0  0  0  0  0  0  0  0  0  0  0
   -0.0680    2.5380   19.6660 H   0  0  0  0  0  0  0  0  0  0  0  0
    3.0410    0.3510   18.0910 H   0  0  0  0  0  0  0  0  0  0  0  0
    4.8400    1.8440   17.9240 H   0  0  0  0  0  0  0  0  0  0  0  0
    4.1470    6.1760   17.4960 H   0  0  0  0  0  0  0  0  0  0  0  0
    4.8100    7.3680   18.6550 H   0  0  0  0  0  0  0  0  0  0  0  0
    5.4020    5.3870   20.2210 H   0  0  0  0  0  0  0  0  0  0  0  0
    6.3740    5.6980   18.7890 H   0  0  0  0  0  0  0  0  0  0  0  0
   -0.2680   11.1300   19.0820 C   0  0  1  0  0  0  0  0  0  0  0  0
   -1.2030   11.2780   20.3020 C   0  0  0  0  0  0  0  0  0  0  0  0
   -0.7730   12.3980   21.2470 C   0  0  0  0  0  0  0  0  0  0  0  0
   -0.6920   13.7700   20.5490 C   0  0  1  0  0  0  0  0  0  0  0  0
   -0.2440   13.6520   19.0760 C   0  0  0  0  0  0  0  0  0  0  0  0
    0.5770   12.3910   18.8240 C   0  0  0  0  0  0  0  0  0  0  0  0
   -0.9330   11.0120   18.2120 H   0  0  0  0  0  0  0  0  0  0  0  0
   -1.2930   10.3370   20.8560 H   0  0  0  0  0  0  0  0  0  0  0  0
   -2.2140   11.5090   19.9410 H   0  0  0  0  0  0  0  0  0  0  0  0
    0.2130   12.1550   21.6610 H   0  0  0  0  0  0  0  0  0  0  0  0
   -1.4530   12.4380   22.1060 H   0  0  0  0  0  0  0  0  0  0  0  0
    0.0680   14.3530   21.0880 H   0  0  0  0  0  0  0  0  0  0  0  0
   -1.1140   13.6440   18.4060 H   0  0  0  0  0  0  0  0  0  0  0  0
    0.3480   14.5320   18.8020 H   0  0  0  0  0  0  0  0  0  0  0  0
    1.4710   12.4170   19.4590 H   0  0  0  0  0  0  0  0  0  0  0  0
    0.9380   12.3850   17.7890 H   0  0  0  0  0  0  0  0  0  0  0  0
   -2.0310   14.5230   20.6580 C   0  0  0  0  0  0  0  0  0  0  0  0
   -2.8090   13.9760   20.1110 H   0  0  0  0  0  0  0  0  0  0  0  0
   -1.9460   15.5190   20.2050 H   0  0  0  0  0  0  0  0  0  0  0  0
   -2.5290   14.6680   22.0830 C   0  0  0  0  0  0  0  0  0  0  0  0
   -3.7400   14.0810   22.3120 N   0  0  0  0  0  0  0  0  0  0  0  0
   -1.9190   15.2220   22.9880 O   0  0  0  0  0  0  0  0  0  0  0  0
   -4.1390   14.1950   23.2350 H   0  0  0  0  0  0  0  0  0  0  0  0
   -4.3350   13.7490   21.5670 H   0  0  0  0  0  0  0  0  0  0  0  0
  1 20  1  0  0  0  0
  1  2  1  0  0  0  0
  2  7  1  0  0  0  0
  3  2  2  0  0  0  0
  3  8  1  0  0  0  0
  4  3  1  0  0  0  0
  5  6  1  0  0  0  0
  5  4  2  0  0  0  0
  6  1  2  0  0  0  0
  9  5  1  0  0  0  0
 10  6  1  0  0  0  0
 12 11  1  0  0  0  0
 13 12  2  0  0  0  0
 14 13  1  0  0  0  0
 15 14  1  0  0  0  0
 15 16  1  0  0  0  0
 16 17  2  0  0  0  0
 17 12  1  0  0  0  0
 17 18  1  0  0  0  0
 18 19  2  0  0  0  0
 20 18  1  0  0  0  0
 21 28  1  0  0  0  0
 21 22  1  0  0  0  0
 21 20  1  0  0  0  0
 22 29  1  0  0  0  0
 23 16  1  0  0  0  0
 23 22  1  0  0  0  0
 24 11  1  0  0  0  0
 25 14  1  0  0  0  0
 26 15  1  0  0  0  0
 27 21  1  0  0  0  0
 30 22  1  0  0  0  0
 31 37  1  6  0  0  0
 31  4  1  0  0  0  0
 31 32  1  0  0  0  0
 32 38  1  0  0  0  0
 32 33  1  0  0  0  0
 33 40  1  0  0  0  0
 33 41  1  0  0  0  0
 34 47  1  0  0  0  0
 34 42  1  1  0  0  0
 34 33  1  0  0  0  0
 35 34  1  0  0  0  0
 36 35  1  0  0  0  0
 36 31  1  0  0  0  0
 36 45  1  0  0  0  0
 39 32  1  0  0  0  0
 43 35  1  0  0  0  0
 44 35  1  0  0  0  0
 46 36  1  0  0  0  0
 47 50  1  0  0  0  0
 48 47  1  0  0  0  0
 49 47  1  0  0  0  0
 50 51  1  0  0  0  0
 50 52  2  0  0  0  0
 51 53  1  0  0  0  0
 54 51  1  0  0  0  0
M  END
>  <MODEL>
12

>  <REMARK>
 VINA RESULT:    -8.399      2.224      9.681
 INTER + INTRA:         -10.232
 INTER:                  -9.754
 INTRA:                  -0.478
 UNBOUND:                 0.131
  Name = 
  4 active torsions:
  status: ('A' for Active; 'I' for Inactive)
    1  A    between atoms: N_10  and  C_11
    2  A    between atoms: C_14  and  C_15
    3  A    between atoms: C_18  and  C_19
    4  A    between atoms: C_19  and  C_20
                            x       y       z     vdW  Elec       q    Type
                         _______ _______ _______ _____ _____    ______ ____

>  <TORSDO>
F 4

$$$$
=
 OpenBabel07192307433D

 54 57  0  0  1  0  0  0  0  0999 V2000
    2.3420    7.7230   18.7010 C   0  0  0  0  0  0  0  0  0  0  0  0
    2.0000    8.7310   17.7850 C   0  0  0  0  0  0  0  0  0  0  0  0
    1.2930    9.8760   18.1810 C   0  0  0  0  0  0  0  0  0  0  0  0
    0.8850   10.0470   19.5060 C   0  0  0  0  0  0  0  0  0  0  0  0
    1.1960    9.0370   20.4210 C   0  0  0  0  0  0  0  0  0  0  0  0
    1.9040    7.8950   20.0220 C   0  0  0  0  0  0  0  0  0  0  0  0
    2.2530    8.6630   16.7330 H   0  0  0  0  0  0  0  0  0  0  0  0
    1.0570   10.6270   17.4310 H   0  0  0  0  0  0  0  0  0  0  0  0
    0.8860    9.1150   21.4610 H   0  0  0  0  0  0  0  0  0  0  0  0
    2.0890    7.1430   20.7870 H   0  0  0  0  0  0  0  0  0  0  0  0
    6.7460    7.8610   17.6370 N   0  0  0  0  0  2  0  0  0  0  0  0
    6.6230    6.5830   17.7150 C   0  0  0  0  0  0  0  0  0  0  0  0
    7.8190    5.9170   17.8440 N   0  0  0  0  0  0  0  0  0  0  0  0
    7.7550    4.6610   18.1270 C   0  0  0  0  0  3  0  0  0  0  0  0
    6.6060    3.9600   18.2820 N   0  0  0  0  0  0  0  0  0  0  0  0
    5.3870    4.5330   18.0250 C   0  0  0  0  0  0  0  0  0  0  0  0
    5.3190    5.8440   17.7080 C   0  0  0  0  0  0  0  0  0  0  0  0
    4.0850    6.5920   17.3600 C   0  0  0  0  0  0  0  0  0  0  0  0
    4.0240    7.2200   16.3050 O   0  0  0  0  0  0  0  0  0  0  0  0
    3.0490    6.5330   18.2950 N   0  0  0  0  0  0  0  0  0  0  0  0
    2.6170    5.2250   18.7900 C   0  0  0  0  0  0  0  0  0  0  0  0
    3.0300    4.0690   17.8770 C   0  0  0  0  0  0  0  0  0  0  0  0
    4.3610    3.6340   18.1290 O   0  0  0  0  0  0  0  0  0  0  0  0
    7.7590    8.0290   17.6710 H   0  0  0  0  0  0  0  0  0  0  0  0
    8.6690    4.0590   18.2600 H   0  0  0  0  0  0  0  0  0  0  0  0
    6.6070    2.9590   18.4250 H   0  0  0  0  0  0  0  0  0  0  0  0
    3.0090    5.0980   19.8050 H   0  0  0  0  0  0  0  0  0  0  0  0
    1.5230    5.2070   18.8110 H   0  0  0  0  0  0  0  0  0  0  0  0
    2.8970    4.2910   16.8110 H   0  0  0  0  0  0  0  0  0  0  0  0
    2.3900    3.2080   18.1000 H   0  0  0  0  0  0  0  0  0  0  0  0
    0.1160   11.2760   19.9630 C   0  0  1  0  0  0  0  0  0  0  0  0
   -1.2630   10.9290   20.5640 C   0  0  0  0  0  0  0  0  0  0  0  0
   -1.3120   11.1090   22.0800 C   0  0  0  0  0  0  0  0  0  0  0  0
   -0.9540   12.5420   22.5230 C   0  0  1  0  0  0  0  0  0  0  0  0
    0.0990   13.1930   21.6010 C   0  0  0  0  0  0  0  0  0  0  0  0
    0.9680   12.1560   20.8970 C   0  0  0  0  0  0  0  0  0  0  0  0
   -0.0940   11.8780   19.0660 H   0  0  0  0  0  0  0  0  0  0  0  0
   -1.5720    9.9100   20.3000 H   0  0  0  0  0  0  0  0  0  0  0  0
   -2.0150   11.5940   20.1200 H   0  0  0  0  0  0  0  0  0  0  0  0
   -0.6050   10.4100   22.5440 H   0  0  0  0  0  0  0  0  0  0  0  0
   -2.3010   10.8210   22.4550 H   0  0  0  0  0  0  0  0  0  0  0  0
   -0.5190   12.4600   23.5290 H   0  0  0  0  0  0  0  0  0  0  0  0
   -0.3870   13.8190   20.8410 H   0  0  0  0  0  0  0  0  0  0  0  0
    0.7370   13.8620   22.1890 H   0  0  0  0  0  0  0  0  0  0  0  0
    1.4900   11.5570   21.6530 H   0  0  0  0  0  0  0  0  0  0  0  0
    1.7490   12.6590   20.3150 H   0  0  0  0  0  0  0  0  0  0  0  0
   -2.2170   13.4190   22.6220 C   0  0  0  0  0  0  0  0  0  0  0  0
   -2.4780   13.8040   21.6290 H   0  0  0  0  0  0  0  0  0  0  0  0
   -2.0310   14.2800   23.2740 H   0  0  0  0  0  0  0  0  0  0  0  0
   -3.4350   12.6690   23.1260 C   0  0  0  0  0  0  0  0  0  0  0  0
   -4.4250   12.5280   22.1980 N   0  0  0  0  0  0  0  0  0  0  0  0
   -3.5510   12.1870   24.2450 O   0  0  0  0  0  0  0  0  0  0  0  0
   -5.2800   12.0810   22.5010 H   0  0  0  0  0  0  0  0  0  0  0  0
   -4.4300   13.0340   21.3240 H   0  0  0  0  0  0  0  0  0  0  0  0
  1  6  1  0  0  0  0
  2  3  1  0  0  0  0
  2  1  2  0  0  0  0
  3  4  2  0  0  0  0
  4 31  1  0  0  0  0
  4  5  1  0  0  0  0
  5  9  1  0  0  0  0
  6  5  2  0  0  0  0
  6 10  1  0  0  0  0
  7  2  1  0  0  0  0
  8  3  1  0  0  0  0
 11 24  1  0  0  0  0
 11 12  1  0  0  0  0
 12 13  2  0  0  0  0
 13 14  1  0  0  0  0
 14 25  1  0  0  0  0
 14 15  1  0  0  0  0
 15 26  1  0  0  0  0
 16 23  1  0  0  0  0
 16 15  1  0  0  0  0
 17 12  1  0  0  0  0
 17 16  2  0  0  0  0
 18 17  1  0  0  0  0
 18 20  1  0  0  0  0
 19 18  2  0  0  0  0
 20  1  1  0  0  0  0
 20 21  1  0  0  0  0
 21 28  1  0  0  0  0
 21 27  1  0  0  0  0
 22 30  1  0  0  0  0
 22 23  1  0  0  0  0
 22 21  1  0  0  0  0
 29 22  1  0  0  0  0
 31 37  1  6  0  0  0
 31 32  1  0  0  0  0
 31 36  1  0  0  0  0
 32 33  1  0  0  0  0
 33 41  1  0  0  0  0
 33 34  1  0  0  0  0
 33 40  1  0  0  0  0
 34 47  1  0  0  0  0
 34 42  1  1  0  0  0
 35 44  1  0  0  0  0
 35 34  1  0  0  0  0
 36 35  1  0  0  0  0
 36 45  1  0  0  0  0
 38 32  1  0  0  0  0
 39 32  1  0  0  0  0
 43 35  1  0  0  0  0
 46 36  1  0  0  0  0
 47 50  1  0  0  0  0
 47 49  1  0  0  0  0
 48 47  1  0  0  0  0
 50 52  2  0  0  0  0
 51 53  1  0  0  0  0
 51 50  1  0  0  0  0
 54 51  1  0  0  0  0
M  END
>  <MODEL>
13

>  <REMARK>
 VINA RESULT:    -8.379      3.246      9.541
 INTER + INTRA:         -10.207
 INTER:                  -9.826
 INTRA:                  -0.381
 UNBOUND:                 0.131
  Name = 
  4 active torsions:
  status: ('A' for Active; 'I' for Inactive)
    1  A    between atoms: N_10  and  C_11
    2  A    between atoms: C_14  and  C_15
    3  A    between atoms: C_18  and  C_19
    4  A    between atoms: C_19  and  C_20
                            x       y       z     vdW  Elec       q    Type
                         _______ _______ _______ _____ _____    ______ ____

>  <TORSDO>
F 4

$$$$
=
 OpenBabel07192307433D

 54 57  0  0  1  0  0  0  0  0999 V2000
    2.3370    7.5530   19.2000 C   0  0  0  0  0  0  0  0  0  0  0  0
    2.1400    8.2520   17.9990 C   0  0  0  0  0  0  0  0  0  0  0  0
    1.3130    9.3850   17.9350 C   0  0  0  0  0  0  0  0  0  0  0  0
    0.6380    9.8480   19.0670 C   0  0  0  0  0  0  0  0  0  0  0  0
    0.8060    9.1430   20.2610 C   0  0  0  0  0  0  0  0  0  0  0  0
    1.6340    8.0140   20.3230 C   0  0  0  0  0  0  0  0  0  0  0  0
    2.6020    7.9420   17.0690 H   0  0  0  0  0  0  0  0  0  0  0  0
    1.1980    9.8900   16.9780 H   0  0  0  0  0  0  0  0  0  0  0  0
    0.2890    9.4540   21.1660 H   0  0  0  0  0  0  0  0  0  0  0  0
    1.6960    7.5060   21.2830 H   0  0  0  0  0  0  0  0  0  0  0  0
    0.5230    3.4360   19.7560 N   0  0  0  0  0  2  0  0  0  0  0  0
    1.7110    3.0640   19.4310 C   0  0  0  0  0  0  0  0  0  0  0  0
    1.7900    1.7510   19.0310 N   0  0  0  0  0  0  0  0  0  0  0  0
    2.9040    1.3720   18.5040 C   0  0  0  0  0  3  0  0  0  0  0  0
    3.9910    2.1640   18.3400 N   0  0  0  0  0  0  0  0  0  0  0  0
    4.0230    3.4370   18.8480 C   0  0  0  0  0  0  0  0  0  0  0  0
    2.9200    3.9500   19.4350 C   0  0  0  0  0  0  0  0  0  0  0  0
    2.8130    5.2870   20.0690 C   0  0  0  0  0  0  0  0  0  0  0  0
    2.4240    5.3870   21.2310 O   0  0  0  0  0  0  0  0  0  0  0  0
    3.1670    6.3750   19.2680 N   0  0  0  0  0  0  0  0  0  0  0  0
    4.4510    6.3480   18.5660 C   0  0  0  0  0  0  0  0  0  0  0  0
    5.4450    5.3530   19.1670 C   0  0  0  0  0  0  0  0  0  0  0  0
    5.2440    4.0310   18.6800 O   0  0  0  0  0  0  0  0  0  0  0  0
   -0.0560    2.5950   19.6420 H   0  0  0  0  0  0  0  0  0  0  0  0
    3.0430    0.3390   18.1450 H   0  0  0  0  0  0  0  0  0  0  0  0
    4.8700    1.8000   17.9950 H   0  0  0  0  0  0  0  0  0  0  0  0
    4.2580    6.1380   17.5090 H   0  0  0  0  0  0  0  0  0  0  0  0
    4.9210    7.3310   18.6670 H   0  0  0  0  0  0  0  0  0  0  0  0
    5.4520    5.3570   20.2640 H   0  0  0  0  0  0  0  0  0  0  0  0
    6.4540    5.6360   18.8460 H   0  0  0  0  0  0  0  0  0  0  0  0
   -0.2640   11.0700   19.0250 C   0  0  1  0  0  0  0  0  0  0  0  0
   -1.1960   11.1670   20.2520 C   0  0  0  0  0  0  0  0  0  0  0  0
   -0.7910   12.2770   21.2190 C   0  0  0  0  0  0  0  0  0  0  0  0
   -0.7510   13.6650   20.5510 C   0  0  1  0  0  0  0  0  0  0  0  0
   -0.3070   13.5910   19.0740 C   0  0  0  0  0  0  0  0  0  0  0  0
    0.5460   12.3590   18.7900 C   0  0  0  0  0  0  0  0  0  0  0  0
   -0.9290   10.9530   18.1560 H   0  0  0  0  0  0  0  0  0  0  0  0
   -1.2580   10.2110   20.7870 H   0  0  0  0  0  0  0  0  0  0  0  0
   -2.2150   11.3780   19.9010 H   0  0  0  0  0  0  0  0  0  0  0  0
    0.2030   12.0510   21.6230 H   0  0  0  0  0  0  0  0  0  0  0  0
   -1.4670   12.2800   22.0830 H   0  0  0  0  0  0  0  0  0  0  0  0
   -0.0030   14.2560   21.0990 H   0  0  0  0  0  0  0  0  0  0  0  0
   -1.1810   13.5750   18.4090 H   0  0  0  0  0  0  0  0  0  0  0  0
    0.2600   14.4930   18.8160 H   0  0  0  0  0  0  0  0  0  0  0  0
    1.4420   12.3940   19.4220 H   0  0  0  0  0  0  0  0  0  0  0  0
    0.9020   12.3840   17.7540 H   0  0  0  0  0  0  0  0  0  0  0  0
   -2.1090   14.3800   20.6830 C   0  0  0  0  0  0  0  0  0  0  0  0
   -2.8710   13.8320   20.1150 H   0  0  0  0  0  0  0  0  0  0  0  0
   -2.0490   15.3920   20.2660 H   0  0  0  0  0  0  0  0  0  0  0  0
   -2.6130   14.4610   22.1110 C   0  0  0  0  0  0  0  0  0  0  0  0
   -1.8630   15.2660   22.9200 N   0  0  0  0  0  0  0  0  0  0  0  0
   -3.6150   13.9020   22.5360 O   0  0  0  0  0  0  0  0  0  0  0  0
   -2.1290   15.3120   23.8950 H   0  0  0  0  0  0  0  0  0  0  0  0
   -0.9580   15.6200   22.6490 H   0  0  0  0  0  0  0  0  0  0  0  0
  1 20  1  0  0  0  0
  1  6  1  0  0  0  0
  2  1  2  0  0  0  0
  3  2  1  0  0  0  0
  3  4  2  0  0  0  0
  4  5  1  0  0  0  0
  5  6  2  0  0  0  0
  5  9  1  0  0  0  0
  6 10  1  0  0  0  0
  7  2  1  0  0  0  0
  8  3  1  0  0  0  0
 12 17  1  0  0  0  0
 12 11  1  0  0  0  0
 13 12  2  0  0  0  0
 14 13  1  0  0  0  0
 15 14  1  0  0  0  0
 15 16  1  0  0  0  0
 16 17  2  0  0  0  0
 17 18  1  0  0  0  0
 18 19  2  0  0  0  0
 20 18  1  0  0  0  0
 21 28  1  0  0  0  0
 21 22  1  0  0  0  0
 21 20  1  0  0  0  0
 22 29  1  0  0  0  0
 23 16  1  0  0  0  0
 23 22  1  0  0  0  0
 24 11  1  0  0  0  0
 25 14  1  0  0  0  0
 26 15  1  0  0  0  0
 27 21  1  0  0  0  0
 30 22  1  0  0  0  0
 31 37  1  6  0  0  0
 31  4  1  0  0  0  0
 31 32  1  0  0  0  0
 32 38  1  0  0  0  0
 32 33  1  0  0  0  0
 33 40  1  0  0  0  0
 33 41  1  0  0  0  0
 34 47  1  0  0  0  0
 34 42  1  1  0  0  0
 34 33  1  0  0  0  0
 35 34  1  0  0  0  0
 36 31  1  0  0  0  0
 36 35  1  0  0  0  0
 36 45  1  0  0  0  0
 39 32  1  0  0  0  0
 43 35  1  0  0  0  0
 44 35  1  0  0  0  0
 46 36  1  0  0  0  0
 47 50  1  0  0  0  0
 48 47  1  0  0  0  0
 49 47  1  0  0  0  0
 50 52  2  0  0  0  0
 50 51  1  0  0  0  0
 51 53  1  0  0  0  0
 54 51  1  0  0  0  0
M  END
>  <MODEL>
14

>  <REMARK>
 VINA RESULT:    -8.363      2.187      9.706
 INTER + INTRA:         -10.187
 INTER:                  -9.737
 INTRA:                  -0.450
 UNBOUND:                 0.131
  Name = 
  4 active torsions:
  status: ('A' for Active; 'I' for Inactive)
    1  A    between atoms: N_10  and  C_11
    2  A    between atoms: C_14  and  C_15
    3  A    between atoms: C_18  and  C_19
    4  A    between atoms: C_19  and  C_20
                            x       y       z     vdW  Elec       q    Type
                         _______ _______ _______ _____ _____    ______ ____

>  <TORSDO>
F 4

$$$$
=
 OpenBabel07192307433D

 54 57  0  0  1  0  0  0  0  0999 V2000
    1.9980    7.9130   19.2830 C   0  0  0  0  0  0  0  0  0  0  0  0
    1.6010    8.1510   20.6080 C   0  0  0  0  0  0  0  0  0  0  0  0
    0.8590    9.2880   20.9620 C   0  0  0  0  0  0  0  0  0  0  0  0
    0.5020   10.2410   20.0040 C   0  0  0  0  0  0  0  0  0  0  0  0
    0.9160   10.0280   18.6860 C   0  0  0  0  0  0  0  0  0  0  0  0
    1.6550    8.8900   18.3370 C   0  0  0  0  0  0  0  0  0  0  0  0
    1.8600    7.4770   21.4170 H   0  0  0  0  0  0  0  0  0  0  0  0
    0.5750    9.4210   22.0030 H   0  0  0  0  0  0  0  0  0  0  0  0
    0.6780   10.7490   17.9070 H   0  0  0  0  0  0  0  0  0  0  0  0
    1.9600    8.8070   17.2950 H   0  0  0  0  0  0  0  0  0  0  0  0
    0.5090    3.7150   20.1210 N   0  0  0  0  0  2  0  0  0  0  0  0
    1.4750    3.4060   19.3300 C   0  0  0  0  0  0  0  0  0  0  0  0
    1.3840    2.1350   18.8130 N   0  0  0  0  0  0  0  0  0  0  0  0
    2.2030    1.8350   17.8650 C   0  0  0  0  0  3  0  0  0  0  0  0
    3.1480    2.6680   17.3670 N   0  0  0  0  0  0  0  0  0  0  0  0
    3.3850    3.8930   17.9360 C   0  0  0  0  0  0  0  0  0  0  0  0
    2.5980    4.3210   18.9470 C   0  0  0  0  0  0  0  0  0  0  0  0
    2.7560    5.5960   19.6920 C   0  0  0  0  0  0  0  0  0  0  0  0
    2.8470    5.5840   20.9180 O   0  0  0  0  0  0  0  0  0  0  0  0
    2.7800    6.7580   18.9180 N   0  0  0  0  0  0  0  0  0  0  0  0
    3.6920    6.8280   17.7750 C   0  0  0  0  0  0  0  0  0  0  0  0
    4.8340    5.8120   17.8530 C   0  0  0  0  0  0  0  0  0  0  0  0
    4.4500    4.5330   17.3630 O   0  0  0  0  0  0  0  0  0  0  0  0
   -0.0760    2.8710   20.1640 H   0  0  0  0  0  0  0  0  0  0  0  0
    2.1850    0.8410   17.3880 H   0  0  0  0  0  0  0  0  0  0  0  0
    3.8220    2.3600   16.6770 H   0  0  0  0  0  0  0  0  0  0  0  0
    3.1040    6.7050   16.8600 H   0  0  0  0  0  0  0  0  0  0  0  0
    4.1730    7.8110   17.7760 H   0  0  0  0  0  0  0  0  0  0  0  0
    5.2650    5.7230   18.8580 H   0  0  0  0  0  0  0  0  0  0  0  0
    5.6420    6.1510   17.1950 H   0  0  0  0  0  0  0  0  0  0  0  0
   -0.2990   11.4820   20.3590 C   0  0  1  0  0  0  0  0  0  0  0  0
   -1.4090   11.2010   21.3940 C   0  0  0  0  0  0  0  0  0  0  0  0
   -1.0940   11.7770   22.7730 C   0  0  0  0  0  0  0  0  0  0  0  0
   -0.8550   13.3000   22.7440 C   0  0  1  0  0  0  0  0  0  0  0  0
   -0.1840   13.7610   21.4320 C   0  0  0  0  0  0  0  0  0  0  0  0
    0.6210   12.6460   20.7730 C   0  0  0  0  0  0  0  0  0  0  0  0
   -0.8210   11.8030   19.4440 H   0  0  0  0  0  0  0  0  0  0  0  0
   -1.6190   10.1280   21.4780 H   0  0  0  0  0  0  0  0  0  0  0  0
   -2.3410   11.6600   21.0410 H   0  0  0  0  0  0  0  0  0  0  0  0
   -0.1940   11.2870   23.1660 H   0  0  0  0  0  0  0  0  0  0  0  0
   -1.8990   11.5230   23.4730 H   0  0  0  0  0  0  0  0  0  0  0  0
   -0.1690   13.5260   23.5720 H   0  0  0  0  0  0  0  0  0  0  0  0
   -0.9370   14.1200   20.7180 H   0  0  0  0  0  0  0  0  0  0  0  0
    0.4750   14.6120   21.6370 H   0  0  0  0  0  0  0  0  0  0  0  0
    1.4040   12.3150   21.4670 H   0  0  0  0  0  0  0  0  0  0  0  0
    1.1410   13.0350   19.8900 H   0  0  0  0  0  0  0  0  0  0  0  0
   -2.1660   14.0680   22.9910 C   0  0  0  0  0  0  0  0  0  0  0  0
   -3.0220   13.4280   22.7420 H   0  0  0  0  0  0  0  0  0  0  0  0
   -2.2160   14.9540   22.3470 H   0  0  0  0  0  0  0  0  0  0  0  0
   -2.3540   14.4940   24.4350 C   0  0  0  0  0  0  0  0  0  0  0  0
   -3.5720   14.1700   24.9570 N   0  0  0  0  0  0  0  0  0  0  0  0
   -1.5050   15.0510   25.1200 O   0  0  0  0  0  0  0  0  0  0  0  0
   -3.7650   14.4790   25.9010 H   0  0  0  0  0  0  0  0  0  0  0  0
   -4.3420   13.8500   24.3880 H   0  0  0  0  0  0  0  0  0  0  0  0
  1  2  1  0  0  0  0
  2  3  2  0  0  0  0
  2  7  1  0  0  0  0
  3  8  1  0  0  0  0
  4 31  1  0  0  0  0
  4  3  1  0  0  0  0
  5  4  2  0  0  0  0
  6  5  1  0  0  0  0
  6  1  2  0  0  0  0
  9  5  1  0  0  0  0
 10  6  1  0  0  0  0
 11 24  1  0  0  0  0
 12 11  1  0  0  0  0
 13 12  2  0  0  0  0
 14 13  1  0  0  0  0
 15 14  1  0  0  0  0
 15 16  1  0  0  0  0
 16 17  2  0  0  0  0
 17 12  1  0  0  0  0
 17 18  1  0  0  0  0
 18 19  2  0  0  0  0
 20  1  1  0  0  0  0
 20 18  1  0  0  0  0
 21 28  1  0  0  0  0
 21 22  1  0  0  0  0
 21 20  1  0  0  0  0
 22 29  1  0  0  0  0
 23 22  1  0  0  0  0
 23 16  1  0  0  0  0
 25 14  1  0  0  0  0
 26 15  1  0  0  0  0
 27 21  1  0  0  0  0
 30 22  1  0  0  0  0
 31 37  1  6  0  0  0
 31 36  1  0  0  0  0
 31 32  1  0  0  0  0
 32 38  1  0  0  0  0
 32 33  1  0  0  0  0
 33 40  1  0  0  0  0
 33 41  1  0  0  0  0
 34 33  1  0  0  0  0
 34 47  1  0  0  0  0
 34 42  1  1  0  0  0
 35 44  1  0  0  0  0
 35 34  1  0  0  0  0
 36 35  1  0  0  0  0
 36 45  1  0  0  0  0
 39 32  1  0  0  0  0
 43 35  1  0  0  0  0
 46 36  1  0  0  0  0
 47 50  1  0  0  0  0
 48 47  1  0  0  0  0
 49 47  1  0  0  0  0
 50 51  1  0  0  0  0
 50 52  2  0  0  0  0
 51 53  1  0  0  0  0
 54 51  1  0  0  0  0
M  END
>  <MODEL>
15

>  <REMARK>
 VINA RESULT:    -8.272      2.583      9.657
 INTER + INTRA:         -10.075
 INTER:                  -9.691
 INTRA:                  -0.384
 UNBOUND:                 0.131
  Name = 
  4 active torsions:
  status: ('A' for Active; 'I' for Inactive)
    1  A    between atoms: N_10  and  C_11
    2  A    between atoms: C_14  and  C_15
    3  A    between atoms: C_18  and  C_19
    4  A    between atoms: C_19  and  C_20
                            x       y       z     vdW  Elec       q    Type
                         _______ _______ _______ _____ _____    ______ ____

>  <TORSDO>
F 4

$$$$
=
 OpenBabel07192307433D

 54 57  0  0  1  0  0  0  0  0999 V2000
    2.1680    7.8920   19.1680 C   0  0  0  0  0  0  0  0  0  0  0  0
    1.9060    8.9030   18.2300 C   0  0  0  0  0  0  0  0  0  0  0  0
    1.1690   10.0490   18.5690 C   0  0  0  0  0  0  0  0  0  0  0  0
    0.6520   10.2170   19.8550 C   0  0  0  0  0  0  0  0  0  0  0  0
    0.8840    9.2040   20.7900 C   0  0  0  0  0  0  0  0  0  0  0  0
    1.6220    8.0620   20.4480 C   0  0  0  0  0  0  0  0  0  0  0  0
    2.2450    8.8370   17.2020 H   0  0  0  0  0  0  0  0  0  0  0  0
    0.9980   10.8010   17.8030 H   0  0  0  0  0  0  0  0  0  0  0  0
    0.4890    9.2800   21.8000 H   0  0  0  0  0  0  0  0  0  0  0  0
    1.7410    7.3080   21.2240 H   0  0  0  0  0  0  0  0  0  0  0  0
    0.5350    3.7690   20.1020 N   0  0  0  0  0  2  0  0  0  0  0  0
    1.4820    3.4080   19.3090 C   0  0  0  0  0  0  0  0  0  0  0  0
    1.3390    2.1320   18.8180 N   0  0  0  0  0  0  0  0  0  0  0  0
    2.1380    1.7840   17.8700 C   0  0  0  0  0  3  0  0  0  0  0  0
    3.1090    2.5710   17.3470 N   0  0  0  0  0  0  0  0  0  0  0  0
    3.3950    3.7980   17.8890 C   0  0  0  0  0  0  0  0  0  0  0  0
    2.6340    4.2750   18.8980 C   0  0  0  0  0  0  0  0  0  0  0  0
    2.8450    5.5570   19.6160 C   0  0  0  0  0  0  0  0  0  0  0  0
    2.9470    5.5650   20.8410 O   0  0  0  0  0  0  0  0  0  0  0  0
    2.9040    6.7020   18.8190 N   0  0  0  0  0  0  0  0  0  0  0  0
    3.8080    6.7160   17.6680 C   0  0  0  0  0  0  0  0  0  0  0  0
    4.9120    5.6610   17.7560 C   0  0  0  0  0  0  0  0  0  0  0  0
    4.4770    4.3870   17.2950 O   0  0  0  0  0  0  0  0  0  0  0  0
   -0.0800    2.9480   20.1660 H   0  0  0  0  0  0  0  0  0  0  0  0
    2.0800    0.7810   17.4130 H   0  0  0  0  0  0  0  0  0  0  0  0
    3.7640    2.2250   16.6580 H   0  0  0  0  0  0  0  0  0  0  0  0
    3.2070    6.5960   16.7600 H   0  0  0  0  0  0  0  0  0  0  0  0
    4.3240    7.6810   17.6440 H   0  0  0  0  0  0  0  0  0  0  0  0
    5.3490    5.5750   18.7590 H   0  0  0  0  0  0  0  0  0  0  0  0
    5.7260    5.9570   17.0840 H   0  0  0  0  0  0  0  0  0  0  0  0
   -0.1500   11.4460   20.2490 C   0  0  1  0  0  0  0  0  0  0  0  0
   -1.4700   11.0930   20.9670 C   0  0  0  0  0  0  0  0  0  0  0  0
   -1.4370   11.4090   22.4610 C   0  0  0  0  0  0  0  0  0  0  0  0
   -1.1280   12.8920   22.7500 C   0  0  1  0  0  0  0  0  0  0  0  0
   -0.1670   13.5030   21.7080 C   0  0  0  0  0  0  0  0  0  0  0  0
    0.7100   12.4470   21.0440 C   0  0  0  0  0  0  0  0  0  0  0  0
   -0.4450   11.9530   19.3180 H   0  0  0  0  0  0  0  0  0  0  0  0
   -1.7420   10.0410   20.8150 H   0  0  0  0  0  0  0  0  0  0  0  0
   -2.2810   11.6790   20.5140 H   0  0  0  0  0  0  0  0  0  0  0  0
   -0.6690   10.7900   22.9390 H   0  0  0  0  0  0  0  0  0  0  0  0
   -2.3860   11.1120   22.9230 H   0  0  0  0  0  0  0  0  0  0  0  0
   -0.6290   12.9230   23.7290 H   0  0  0  0  0  0  0  0  0  0  0  0
   -0.7290   14.0330   20.9280 H   0  0  0  0  0  0  0  0  0  0  0  0
    0.4700   14.2520   22.1920 H   0  0  0  0  0  0  0  0  0  0  0  0
    1.3070   11.9440   21.8150 H   0  0  0  0  0  0  0  0  0  0  0  0
    1.4280   12.9290   20.3700 H   0  0  0  0  0  0  0  0  0  0  0  0
   -2.4250   13.7150   22.8520 C   0  0  0  0  0  0  0  0  0  0  0  0
   -2.7270   14.0550   21.8530 H   0  0  0  0  0  0  0  0  0  0  0  0
   -2.2630   14.6060   23.4700 H   0  0  0  0  0  0  0  0  0  0  0  0
   -3.5970   12.9310   23.4120 C   0  0  0  0  0  0  0  0  0  0  0  0
   -4.5080   12.5450   22.4720 N   0  0  0  0  0  0  0  0  0  0  0  0
   -3.7370   12.6190   24.5870 O   0  0  0  0  0  0  0  0  0  0  0  0
   -5.3340   12.0630   22.8020 H   0  0  0  0  0  0  0  0  0  0  0  0
   -4.5050   12.9050   21.5280 H   0  0  0  0  0  0  0  0  0  0  0  0
  1  6  1  0  0  0  0
  2  3  1  0  0  0  0
  2  1  2  0  0  0  0
  3  4  2  0  0  0  0
  4 31  1  0  0  0  0
  4  5  1  0  0  0  0
  5  9  1  0  0  0  0
  6  5  2  0  0  0  0
  6 10  1  0  0  0  0
  7  2  1  0  0  0  0
  8  3  1  0  0  0  0
 11 24  1  0  0  0  0
 12 11  1  0  0  0  0
 13 12  2  0  0  0  0
 14 13  1  0  0  0  0
 15 14  1  0  0  0  0
 15 16  1  0  0  0  0
 16 17  2  0  0  0  0
 17 12  1  0  0  0  0
 17 18  1  0  0  0  0
 18 19  2  0  0  0  0
 20  1  1  0  0  0  0
 20 18  1  0  0  0  0
 21 22  1  0  0  0  0
 21 20  1  0  0  0  0
 22 29  1  0  0  0  0
 23 22  1  0  0  0  0
 23 16  1  0  0  0  0
 25 14  1  0  0  0  0
 26 15  1  0  0  0  0
 27 21  1  0  0  0  0
 28 21  1  0  0  0  0
 30 22  1  0  0  0  0
 31 37  1  6  0  0  0
 31 32  1  0  0  0  0
 31 36  1  0  0  0  0
 32 33  1  0  0  0  0
 33 34  1  0  0  0  0
 33 41  1  0  0  0  0
 33 40  1  0  0  0  0
 34 47  1  0  0  0  0
 34 42  1  1  0  0  0
 35 44  1  0  0  0  0
 35 34  1  0  0  0  0
 36 35  1  0  0  0  0
 36 45  1  0  0  0  0
 38 32  1  0  0  0  0
 39 32  1  0  0  0  0
 43 35  1  0  0  0  0
 46 36  1  0  0  0  0
 47 50  1  0  0  0  0
 47 49  1  0  0  0  0
 48 47  1  0  0  0  0
 50 52  2  0  0  0  0
 51 53  1  0  0  0  0
 51 50  1  0  0  0  0
 54 51  1  0  0  0  0
M  END
>  <MODEL>
16

>  <REMARK>
 VINA RESULT:    -8.179      2.637      9.475
 INTER + INTRA:          -9.961
 INTER:                  -9.727
 INTRA:                  -0.234
 UNBOUND:                 0.131
  Name = 
  4 active torsions:
  status: ('A' for Active; 'I' for Inactive)
    1  A    between atoms: N_10  and  C_11
    2  A    between atoms: C_14  and  C_15
    3  A    between atoms: C_18  and  C_19
    4  A    between atoms: C_19  and  C_20
                            x       y       z     vdW  Elec       q    Type
                         _______ _______ _______ _____ _____    ______ ____

>  <TORSDO>
F 4

$$$$
=
 OpenBabel07192307433D

 54 57  0  0  1  0  0  0  0  0999 V2000
    1.3350   10.2750   18.9240 C   0  0  0  0  0  0  0  0  0  0  0  0
    1.9450    9.5910   17.8600 C   0  0  0  0  0  0  0  0  0  0  0  0
    2.4200    8.2790   18.0050 C   0  0  0  0  0  0  0  0  0  0  0  0
    2.3200    7.6080   19.2270 C   0  0  0  0  0  0  0  0  0  0  0  0
    1.7400    8.2900   20.3000 C   0  0  0  0  0  0  0  0  0  0  0  0
    1.2640    9.5990   20.1510 C   0  0  0  0  0  0  0  0  0  0  0  0
    2.0890   10.0490   16.8880 H   0  0  0  0  0  0  0  0  0  0  0  0
    2.8820    7.7960   17.1470 H   0  0  0  0  0  0  0  0  0  0  0  0
    1.6530    7.8170   21.2750 H   0  0  0  0  0  0  0  0  0  0  0  0
    0.8450   10.0710   21.0380 H   0  0  0  0  0  0  0  0  0  0  0  0
   -2.5770   11.6000   20.7900 N   0  0  0  0  0  2  0  0  0  0  0  0
   -2.1130   12.7660   20.5070 C   0  0  0  0  0  0  0  0  0  0  0  0
   -2.7290   13.7890   21.1870 N   0  0  0  0  0  0  0  0  0  0  0  0
   -2.1830   14.9530   21.1020 C   0  0  0  0  0  3  0  0  0  0  0  0
   -1.0710   15.2350   20.3810 N   0  0  0  0  0  0  0  0  0  0  0  0
   -0.4950   14.2920   19.5690 C   0  0  0  0  0  0  0  0  0  0  0  0
   -0.9820   13.0330   19.5600 C   0  0  0  0  0  0  0  0  0  0  0  0
   -0.4980   11.9190   18.7050 C   0  0  0  0  0  0  0  0  0  0  0  0
   -1.2880   11.3070   17.9890 O   0  0  0  0  0  0  0  0  0  0  0  0
    0.8660   11.6320   18.7870 N   0  0  0  0  0  0  0  0  0  0  0  0
    1.8290   12.7230   18.6330 C   0  0  0  0  0  0  0  0  0  0  0  0
    1.2400   13.9520   17.9360 C   0  0  0  0  0  0  0  0  0  0  0  0
    0.5450   14.8020   18.8410 O   0  0  0  0  0  0  0  0  0  0  0  0
   -3.3340   11.7760   21.4630 H   0  0  0  0  0  0  0  0  0  0  0  0
   -2.6080   15.8230   21.6290 H   0  0  0  0  0  0  0  0  0  0  0  0
   -0.7250   16.1810   20.2810 H   0  0  0  0  0  0  0  0  0  0  0  0
    2.2250   12.9720   19.6230 H   0  0  0  0  0  0  0  0  0  0  0  0
    2.6410   12.3790   17.9860 H   0  0  0  0  0  0  0  0  0  0  0  0
    0.5990   13.6990   17.0820 H   0  0  0  0  0  0  0  0  0  0  0  0
    2.0660   14.5530   17.5400 H   0  0  0  0  0  0  0  0  0  0  0  0
    2.8280    6.1880   19.4130 C   0  0  1  0  0  0  0  0  0  0  0  0
    1.7580    5.1240   19.0870 C   0  0  0  0  0  0  0  0  0  0  0  0
    2.0360    4.3830   17.7810 C   0  0  0  0  0  0  0  0  0  0  0  0
    3.4100    3.6840   17.7720 C   0  0  1  0  0  0  0  0  0  0  0  0
    4.4710    4.4700   18.5720 C   0  0  0  0  0  0  0  0  0  0  0  0
    4.1460    5.9580   18.6510 C   0  0  0  0  0  0  0  0  0  0  0  0
    3.0550    6.0620   20.4820 H   0  0  0  0  0  0  0  0  0  0  0  0
    0.7510    5.5600   19.0610 H   0  0  0  0  0  0  0  0  0  0  0  0
    1.7410    4.3850   19.8990 H   0  0  0  0  0  0  0  0  0  0  0  0
    2.0000    5.0990   16.9510 H   0  0  0  0  0  0  0  0  0  0  0  0
    1.2320    3.6630   17.5850 H   0  0  0  0  0  0  0  0  0  0  0  0
    3.7360    3.6460   16.7230 H   0  0  0  0  0  0  0  0  0  0  0  0
    4.5580    4.0750   19.5920 H   0  0  0  0  0  0  0  0  0  0  0  0
    5.4540    4.3370   18.1050 H   0  0  0  0  0  0  0  0  0  0  0  0
    4.1030    6.3670   17.6340 H   0  0  0  0  0  0  0  0  0  0  0  0
    4.9600    6.4890   19.1590 H   0  0  0  0  0  0  0  0  0  0  0  0
    3.2950    2.2360   18.2860 C   0  0  0  0  0  0  0  0  0  0  0  0
    3.9150    1.5750   17.6680 H   0  0  0  0  0  0  0  0  0  0  0  0
    2.2590    1.8860   18.2100 H   0  0  0  0  0  0  0  0  0  0  0  0
    3.7730    2.0620   19.7150 C   0  0  0  0  0  0  0  0  0  0  0  0
    4.9950    1.4660   19.8240 N   0  0  0  0  0  0  0  0  0  0  0  0
    3.1670    2.4380   20.7100 O   0  0  0  0  0  0  0  0  0  0  0  0
    5.3350    1.2800   20.7590 H   0  0  0  0  0  0  0  0  0  0  0  0
    5.4530    1.0130   19.0460 H   0  0  0  0  0  0  0  0  0  0  0  0
  1  6  1  0  0  0  0
  2  3  1  0  0  0  0
  2  1  2  0  0  0  0
  3  4  2  0  0  0  0
  4 31  1  0  0  0  0
  4  5  1  0  0  0  0
  5  9  1  0  0  0  0
  6  5  2  0  0  0  0
  6 10  1  0  0  0  0
  7  2  1  0  0  0  0
  8  3  1  0  0  0  0
 11 24  1  0  0  0  0
 12 11  1  0  0  0  0
 12 13  2  0  0  0  0
 14 13  1  0  0  0  0
 14 25  1  0  0  0  0
 15 14  1  0  0  0  0
 16 15  1  0  0  0  0
 17 16  2  0  0  0  0
 17 12  1  0  0  0  0
 18 20  1  0  0  0  0
 18 17  1  0  0  0  0
 19 18  2  0  0  0  0
 20  1  1  0  0  0  0
 21 20  1  0  0  0  0
 21 27  1  0  0  0  0
 22 21  1  0  0  0  0
 22 23  1  0  0  0  0
 23 16  1  0  0  0  0
 26 15  1  0  0  0  0
 28 21  1  0  0  0  0
 29 22  1  0  0  0  0
 30 22  1  0  0  0  0
 31 37  1  1  0  0  0
 32 31  1  0  0  0  0
 32 39  1  0  0  0  0
 33 32  1  0  0  0  0
 34 42  1  6  0  0  0
 34 33  1  0  0  0  0
 34 47  1  0  0  0  0
 34 35  1  0  0  0  0
 35 36  1  0  0  0  0
 35 43  1  0  0  0  0
 36 46  1  0  0  0  0
 36 31  1  0  0  0  0
 38 32  1  0  0  0  0
 40 33  1  0  0  0  0
 41 33  1  0  0  0  0
 44 35  1  0  0  0  0
 45 36  1  0  0  0  0
 47 50  1  0  0  0  0
 48 47  1  0  0  0  0
 49 47  1  0  0  0  0
 50 51  1  0  0  0  0
 50 52  2  0  0  0  0
 51 53  1  0  0  0  0
 54 51  1  0  0  0  0
M  END
>  <MODEL>
17

>  <REMARK>
 VINA RESULT:    -8.036      1.497      1.889
 INTER + INTRA:          -9.784
 INTER:                  -8.998
 INTRA:                  -0.785
 UNBOUND:                 0.131
  Name = 
  4 active torsions:
  status: ('A' for Active; 'I' for Inactive)
    1  A    between atoms: N_10  and  C_11
    2  A    between atoms: C_14  and  C_15
    3  A    between atoms: C_18  and  C_19
    4  A    between atoms: C_19  and  C_20
                            x       y       z     vdW  Elec       q    Type
                         _______ _______ _______ _____ _____    ______ ____

>  <TORSDO>
F 4

$$$$
=
 OpenBabel07192307433D

 54 57  0  0  1  0  0  0  0  0999 V2000
    2.3720    7.5360   18.6740 C   0  0  0  0  0  0  0  0  0  0  0  0
    1.9720    8.5200   17.7560 C   0  0  0  0  0  0  0  0  0  0  0  0
    1.2180    9.6350   18.1530 C   0  0  0  0  0  0  0  0  0  0  0  0
    0.8190    9.7970   19.4820 C   0  0  0  0  0  0  0  0  0  0  0  0
    1.1870    8.8090   20.3990 C   0  0  0  0  0  0  0  0  0  0  0  0
    1.9430    7.6980   19.9990 C   0  0  0  0  0  0  0  0  0  0  0  0
    2.2150    8.4570   16.7010 H   0  0  0  0  0  0  0  0  0  0  0  0
    0.9380   10.3680   17.4000 H   0  0  0  0  0  0  0  0  0  0  0  0
    0.8870    8.8810   21.4420 H   0  0  0  0  0  0  0  0  0  0  0  0
    2.1720    6.9610   20.7670 H   0  0  0  0  0  0  0  0  0  0  0  0
    6.7940    7.8360   17.7270 N   0  0  0  0  0  2  0  0  0  0  0  0
    6.7110    6.5540   17.7810 C   0  0  0  0  0  0  0  0  0  0  0  0
    7.9250    5.9250   17.9290 N   0  0  0  0  0  0  0  0  0  0  0  0
    7.8960    4.6630   18.1910 C   0  0  0  0  0  3  0  0  0  0  0  0
    6.7670    3.9230   18.3050 N   0  0  0  0  0  0  0  0  0  0  0  0
    5.5360    4.4590   18.0260 C   0  0  0  0  0  0  0  0  0  0  0  0
    5.4330    5.7720   17.7280 C   0  0  0  0  0  0  0  0  0  0  0  0
    4.1840    6.4860   17.3600 C   0  0  0  0  0  0  0  0  0  0  0  0
    4.1290    7.1300   16.3140 O   0  0  0  0  0  0  0  0  0  0  0  0
    3.1270    6.3770   18.2670 N   0  0  0  0  0  0  0  0  0  0  0  0
    2.7270    5.0480   18.7300 C   0  0  0  0  0  0  0  0  0  0  0  0
    3.2000    3.9210   17.8090 C   0  0  0  0  0  0  0  0  0  0  0  0
    4.5380    3.5250   18.0890 O   0  0  0  0  0  0  0  0  0  0  0  0
    7.8000    8.0370   17.7890 H   0  0  0  0  0  0  0  0  0  0  0  0
    8.8260    4.0890   18.3370 H   0  0  0  0  0  0  0  0  0  0  0  0
    6.7970    2.9190   18.4310 H   0  0  0  0  0  0  0  0  0  0  0  0
    3.0970    4.9160   19.7530 H   0  0  0  0  0  0  0  0  0  0  0  0
    1.6340    4.9940   18.7230 H   0  0  0  0  0  0  0  0  0  0  0  0
    3.0870    4.1570   16.7440 H   0  0  0  0  0  0  0  0  0  0  0  0
    2.5840    3.0360   18.0020 H   0  0  0  0  0  0  0  0  0  0  0  0
    0.0000   10.9920   19.9400 C   0  0  1  0  0  0  0  0  0  0  0  0
    0.8780   12.1880   20.3670 C   0  0  0  0  0  0  0  0  0  0  0  0
    0.8390   13.3410   19.3660 C   0  0  0  0  0  0  0  0  0  0  0  0
   -0.5880   13.8700   19.1200 C   0  0  1  0  0  0  0  0  0  0  0  0
   -1.6490   12.7520   19.2050 C   0  0  0  0  0  0  0  0  0  0  0  0
   -1.0640   11.3780   18.8960 C   0  0  0  0  0  0  0  0  0  0  0  0
   -0.5440   10.6850   20.8460 H   0  0  0  0  0  0  0  0  0  0  0  0
    1.9160   11.8830   20.5440 H   0  0  0  0  0  0  0  0  0  0  0  0
    0.5100   12.5650   21.3310 H   0  0  0  0  0  0  0  0  0  0  0  0
    1.2560   12.9970   18.4120 H   0  0  0  0  0  0  0  0  0  0  0  0
    1.5010   14.1470   19.7040 H   0  0  0  0  0  0  0  0  0  0  0  0
   -0.6010   14.2730   18.0980 H   0  0  0  0  0  0  0  0  0  0  0  0
   -2.1030   12.7240   20.2040 H   0  0  0  0  0  0  0  0  0  0  0  0
   -2.4630   12.9660   18.5030 H   0  0  0  0  0  0  0  0  0  0  0  0
   -0.6490   11.3890   17.8800 H   0  0  0  0  0  0  0  0  0  0  0  0
   -1.8620   10.6270   18.8910 H   0  0  0  0  0  0  0  0  0  0  0  0
   -0.9230   15.0210   20.0880 C   0  0  0  0  0  0  0  0  0  0  0  0
   -1.1750   15.9230   19.5160 H   0  0  0  0  0  0  0  0  0  0  0  0
   -0.0540   15.2580   20.7130 H   0  0  0  0  0  0  0  0  0  0  0  0
   -2.1130   14.7310   20.9820 C   0  0  0  0  0  0  0  0  0  0  0  0
   -3.2870   15.2660   20.5370 N   0  0  0  0  0  0  0  0  0  0  0  0
   -2.0780   14.0560   22.0020 O   0  0  0  0  0  0  0  0  0  0  0  0
   -4.1000   15.1450   21.1260 H   0  0  0  0  0  0  0  0  0  0  0  0
   -3.3290   15.9450   19.7910 H   0  0  0  0  0  0  0  0  0  0  0  0
  1  6  1  0  0  0  0
  2  3  1  0  0  0  0
  2  1  2  0  0  0  0
  3  4  2  0  0  0  0
  4 31  1  0  0  0  0
  4  5  1  0  0  0  0
  5  9  1  0  0  0  0
  6  5  2  0  0  0  0
  6 10  1  0  0  0  0
  7  2  1  0  0  0  0
  8  3  1  0  0  0  0
 11 12  1  0  0  0  0
 11 24  1  0  0  0  0
 12 13  2  0  0  0  0
 13 14  1  0  0  0  0
 14 15  1  0  0  0  0
 14 25  1  0  0  0  0
 15 26  1  0  0  0  0
 16 23  1  0  0  0  0
 16 15  1  0  0  0  0
 17 12  1  0  0  0  0
 17 16  2  0  0  0  0
 18 17  1  0  0  0  0
 18 20  1  0  0  0  0
 19 18  2  0  0  0  0
 20  1  1  0  0  0  0
 20 21  1  0  0  0  0
 21 27  1  0  0  0  0
 22 30  1  0  0  0  0
 22 23  1  0  0  0  0
 22 21  1  0  0  0  0
 28 21  1  0  0  0  0
 29 22  1  0  0  0  0
 31 32  1  0  0  0  0
 31 37  1  1  0  0  0
 32 38  1  0  0  0  0
 32 39  1  0  0  0  0
 33 41  1  0  0  0  0
 33 32  1  0  0  0  0
 34 42  1  6  0  0  0
 34 35  1  0  0  0  0
 34 33  1  0  0  0  0
 34 47  1  0  0  0  0
 35 43  1  0  0  0  0
 36 35  1  0  0  0  0
 36 31  1  0  0  0  0
 40 33  1  0  0  0  0
 44 35  1  0  0  0  0
 45 36  1  0  0  0  0
 46 36  1  0  0  0  0
 47 49  1  0  0  0  0
 47 50  1  0  0  0  0
 48 47  1  0  0  0  0
 50 52  2  0  0  0  0
 51 50  1  0  0  0  0
 51 53  1  0  0  0  0
 54 51  1  0  0  0  0
M  END
>  <MODEL>
18

>  <REMARK>
 VINA RESULT:    -7.944      3.219      9.788
 INTER + INTRA:          -9.670
 INTER:                  -9.421
 INTRA:                  -0.249
 UNBOUND:                 0.131
  Name = 
  4 active torsions:
  status: ('A' for Active; 'I' for Inactive)
    1  A    between atoms: N_10  and  C_11
    2  A    between atoms: C_14  and  C_15
    3  A    between atoms: C_18  and  C_19
    4  A    between atoms: C_19  and  C_20
                            x       y       z     vdW  Elec       q    Type
                         _______ _______ _______ _____ _____    ______ ____

>  <TORSDO>
F 4

$$$$
=
 OpenBabel07192307433D

 54 57  0  0  1  0  0  0  0  0999 V2000
    0.9670   10.7090   20.1820 C   0  0  0  0  0  0  0  0  0  0  0  0
    1.2950   10.3040   18.8780 C   0  0  0  0  0  0  0  0  0  0  0  0
    1.5740    8.9620   18.5740 C   0  0  0  0  0  0  0  0  0  0  0  0
    1.5550    7.9800   19.5660 C   0  0  0  0  0  0  0  0  0  0  0  0
    1.2570    8.3770   20.8720 C   0  0  0  0  0  0  0  0  0  0  0  0
    0.9760    9.7170   21.1730 C   0  0  0  0  0  0  0  0  0  0  0  0
    1.3610   11.0060   18.0560 H   0  0  0  0  0  0  0  0  0  0  0  0
    1.8200    8.7040   17.5460 H   0  0  0  0  0  0  0  0  0  0  0  0
    1.2450    7.6530   21.6840 H   0  0  0  0  0  0  0  0  0  0  0  0
    0.7750    9.9510   22.2170 H   0  0  0  0  0  0  0  0  0  0  0  0
   -2.3700   11.8470   23.0310 N   0  0  0  0  0  2  0  0  0  0  0  0
   -1.7750   12.9870   22.9900 C   0  0  0  0  0  0  0  0  0  0  0  0
   -2.1170   13.8270   24.0230 N   0  0  0  0  0  0  0  0  0  0  0  0
   -1.4130   14.8990   24.1550 C   0  0  0  0  0  3  0  0  0  0  0  0
   -0.3900   15.2570   23.3430 N   0  0  0  0  0  0  0  0  0  0  0  0
   -0.0950   14.5360   22.2140 C   0  0  0  0  0  0  0  0  0  0  0  0
   -0.7690   13.3950   21.9570 C   0  0  0  0  0  0  0  0  0  0  0  0
   -0.5980   12.5340   20.7590 C   0  0  0  0  0  0  0  0  0  0  0  0
   -1.5720   12.2470   20.0650 O   0  0  0  0  0  0  0  0  0  0  0  0
    0.7010   12.0890   20.5060 N   0  0  0  0  0  0  0  0  0  0  0  0
    1.7900   13.0670   20.4740 C   0  0  0  0  0  0  0  0  0  0  0  0
    1.3040   14.5020   20.2560 C   0  0  0  0  0  0  0  0  0  0  0  0
    0.8930   15.1210   21.4690 O   0  0  0  0  0  0  0  0  0  0  0  0
   -2.9820   11.9000   23.8540 H   0  0  0  0  0  0  0  0  0  0  0  0
   -1.6140   15.6180   24.9660 H   0  0  0  0  0  0  0  0  0  0  0  0
    0.0820   16.1480   23.4380 H   0  0  0  0  0  0  0  0  0  0  0  0
    2.3620   12.9710   21.4030 H   0  0  0  0  0  0  0  0  0  0  0  0
    2.4330   12.8410   19.6190 H   0  0  0  0  0  0  0  0  0  0  0  0
    0.5130   14.5800   19.5010 H   0  0  0  0  0  0  0  0  0  0  0  0
    2.1470   15.0990   19.8900 H   0  0  0  0  0  0  0  0  0  0  0  0
    1.8550    6.5210   19.2650 C   0  0  1  0  0  0  0  0  0  0  0  0
    2.9980    6.3450   18.2420 C   0  0  0  0  0  0  0  0  0  0  0  0
    4.2880    5.8280   18.8760 C   0  0  0  0  0  0  0  0  0  0  0  0
    4.0970    4.4820   19.6020 C   0  0  1  0  0  0  0  0  0  0  0  0
    2.6990    4.3550   20.2440 C   0  0  0  0  0  0  0  0  0  0  0  0
    2.0850    5.7160   20.5580 C   0  0  0  0  0  0  0  0  0  0  0  0
    0.9600    6.0980   18.7840 H   0  0  0  0  0  0  0  0  0  0  0  0
    3.1980    7.2770   17.6980 H   0  0  0  0  0  0  0  0  0  0  0  0
    2.6790    5.6200   17.4830 H   0  0  0  0  0  0  0  0  0  0  0  0
    4.6520    6.5690   19.5980 H   0  0  0  0  0  0  0  0  0  0  0  0
    5.0710    5.7510   18.1120 H   0  0  0  0  0  0  0  0  0  0  0  0
    4.8440    4.4510   20.4090 H   0  0  0  0  0  0  0  0  0  0  0  0
    2.0170    3.8070   19.5800 H   0  0  0  0  0  0  0  0  0  0  0  0
    2.7700    3.7680   21.1660 H   0  0  0  0  0  0  0  0  0  0  0  0
    2.7410    6.2490   21.2560 H   0  0  0  0  0  0  0  0  0  0  0  0
    1.1300    5.5810   21.0800 H   0  0  0  0  0  0  0  0  0  0  0  0
    4.3760    3.3000   18.6540 C   0  0  0  0  0  0  0  0  0  0  0  0
    4.8590    2.4860   19.2100 H   0  0  0  0  0  0  0  0  0  0  0  0
    5.0610    3.6070   17.8540 H   0  0  0  0  0  0  0  0  0  0  0  0
    3.1230    2.7130   18.0350 C   0  0  0  0  0  0  0  0  0  0  0  0
    2.8360    1.4460   18.4530 N   0  0  0  0  0  0  0  0  0  0  0  0
    2.3850    3.2980   17.2520 O   0  0  0  0  0  0  0  0  0  0  0  0
    2.0380    0.9920   18.0300 H   0  0  0  0  0  0  0  0  0  0  0  0
    3.4910    0.8830   18.9750 H   0  0  0  0  0  0  0  0  0  0  0  0
  1 20  1  0  0  0  0
  1  6  1  0  0  0  0
  2  1  2  0  0  0  0
  3  2  1  0  0  0  0
  3  4  2  0  0  0  0
  4  5  1  0  0  0  0
  5  6  2  0  0  0  0
  5  9  1  0  0  0  0
  6 10  1  0  0  0  0
  7  2  1  0  0  0  0
  8  3  1  0  0  0  0
 11 24  1  0  0  0  0
 12 11  1  0  0  0  0
 12 13  2  0  0  0  0
 13 14  1  0  0  0  0
 14 25  1  0  0  0  0
 15 26  1  0  0  0  0
 15 14  1  0  0  0  0
 16 15  1  0  0  0  0
 17 16  2  0  0  0  0
 17 12  1  0  0  0  0
 18 17  1  0  0  0  0
 19 18  2  0  0  0  0
 20 18  1  0  0  0  0
 21 20  1  0  0  0  0
 21 27  1  0  0  0  0
 22 21  1  0  0  0  0
 22 23  1  0  0  0  0
 23 16  1  0  0  0  0
 28 21  1  0  0  0  0
 29 22  1  0  0  0  0
 30 22  1  0  0  0  0
 31 37  1  6  0  0  0
 31  4  1  0  0  0  0
 31 36  1  0  0  0  0
 32 33  1  0  0  0  0
 32 31  1  0  0  0  0
 33 40  1  0  0  0  0
 33 34  1  0  0  0  0
 34 35  1  0  0  0  0
 34 42  1  1  0  0  0
 35 36  1  0  0  0  0
 35 44  1  0  0  0  0
 36 46  1  0  0  0  0
 36 45  1  0  0  0  0
 38 32  1  0  0  0  0
 39 32  1  0  0  0  0
 41 33  1  0  0  0  0
 43 35  1  0  0  0  0
 47 48  1  0  0  0  0
 47 34  1  0  0  0  0
 49 47  1  0  0  0  0
 50 51  1  0  0  0  0
 50 47  1  0  0  0  0
 51 54  1  0  0  0  0
 52 50  2  0  0  0  0
 53 51  1  0  0  0  0
M  END
>  <MODEL>
19

>  <REMARK>
 VINA RESULT:    -7.929      1.418      2.062
 INTER + INTRA:          -9.652
 INTER:                  -8.896
 INTRA:                  -0.757
 UNBOUND:                 0.131
  Name = 
  4 active torsions:
  status: ('A' for Active; 'I' for Inactive)
    1  A    between atoms: N_10  and  C_11
    2  A    between atoms: C_14  and  C_15
    3  A    between atoms: C_18  and  C_19
    4  A    between atoms: C_19  and  C_20
                            x       y       z     vdW  Elec       q    Type
                         _______ _______ _______ _____ _____    ______ ____

>  <TORSDO>
F 4

$$$$
=
 OpenBabel07192307433D

 54 57  0  0  1  0  0  0  0  0999 V2000
    0.9220    9.5060   20.5710 C   0  0  0  0  0  0  0  0  0  0  0  0
    0.9160    8.4650   21.5130 C   0  0  0  0  0  0  0  0  0  0  0  0
    1.4440    7.2000   21.2150 C   0  0  0  0  0  0  0  0  0  0  0  0
    1.9820    6.9230   19.9550 C   0  0  0  0  0  0  0  0  0  0  0  0
    1.9680    7.9440   19.0010 C   0  0  0  0  0  0  0  0  0  0  0  0
    1.4410    9.2070   19.3030 C   0  0  0  0  0  0  0  0  0  0  0  0
    0.4920    8.5870   22.5030 H   0  0  0  0  0  0  0  0  0  0  0  0
    1.4160    6.4310   21.9830 H   0  0  0  0  0  0  0  0  0  0  0  0
    2.3600    7.7730   18.0010 H   0  0  0  0  0  0  0  0  0  0  0  0
    1.4460    9.9430   18.5000 H   0  0  0  0  0  0  0  0  0  0  0  0
    2.1140   13.1720   18.1870 N   0  0  0  0  0  2  0  0  0  0  0  0
    1.0950   13.6760   18.7880 C   0  0  0  0  0  0  0  0  0  0  0  0
    0.6180   14.8250   18.2030 N   0  0  0  0  0  0  0  0  0  0  0  0
   -0.5150   15.2660   18.6320 C   0  0  0  0  0  3  0  0  0  0  0  0
   -1.2440   14.6950   19.6200 N   0  0  0  0  0  0  0  0  0  0  0  0
   -0.7550   13.6340   20.3390 C   0  0  0  0  0  0  0  0  0  0  0  0
    0.4300   13.0840   19.9940 C   0  0  0  0  0  0  0  0  0  0  0  0
    1.1090   11.9680   20.6990 C   0  0  0  0  0  0  0  0  0  0  0  0
    2.2670   12.1030   21.0900 O   0  0  0  0  0  0  0  0  0  0  0  0
    0.3590   10.8020   20.8640 N   0  0  0  0  0  0  0  0  0  0  0  0
   -0.9840   10.8990   21.4370 C   0  0  0  0  0  0  0  0  0  0  0  0
   -1.2140   12.1970   22.2140 C   0  0  0  0  0  0  0  0  0  0  0  0
   -1.5880   13.2740   21.3630 O   0  0  0  0  0  0  0  0  0  0  0  0
    2.3080   13.8190   17.4120 H   0  0  0  0  0  0  0  0  0  0  0  0
   -0.9720   16.1740   18.2050 H   0  0  0  0  0  0  0  0  0  0  0  0
   -2.0880   15.1230   19.9780 H   0  0  0  0  0  0  0  0  0  0  0  0
   -1.7110   10.7800   20.6260 H   0  0  0  0  0  0  0  0  0  0  0  0
   -1.1090   10.0930   22.1660 H   0  0  0  0  0  0  0  0  0  0  0  0
   -0.3600   12.4830   22.8390 H   0  0  0  0  0  0  0  0  0  0  0  0
   -2.0620   12.0470   22.8910 H   0  0  0  0  0  0  0  0  0  0  0  0
    2.5590    5.5620   19.6050 C   0  0  1  0  0  0  0  0  0  0  0  0
    1.4700    4.5150   19.2870 C   0  0  0  0  0  0  0  0  0  0  0  0
    1.3950    4.1670   17.8020 C   0  0  0  0  0  0  0  0  0  0  0  0
    2.7320    3.6370   17.2450 C   0  0  1  0  0  0  0  0  0  0  0  0
    3.9510    4.2940   17.9270 C   0  0  0  0  0  0  0  0  0  0  0  0
    3.6210    5.6710   18.4940 C   0  0  0  0  0  0  0  0  0  0  0  0
    3.0770    5.1890   20.5010 H   0  0  0  0  0  0  0  0  0  0  0  0
    0.4840    4.8390   19.6440 H   0  0  0  0  0  0  0  0  0  0  0  0
    1.6990    3.5940   19.8390 H   0  0  0  0  0  0  0  0  0  0  0  0
    1.1110    5.0660   17.2400 H   0  0  0  0  0  0  0  0  0  0  0  0
    0.5880    3.4450   17.6310 H   0  0  0  0  0  0  0  0  0  0  0  0
    2.7550    3.9040   16.1790 H   0  0  0  0  0  0  0  0  0  0  0  0
    4.3280    3.6600   18.7410 H   0  0  0  0  0  0  0  0  0  0  0  0
    4.7690    4.3860   17.2040 H   0  0  0  0  0  0  0  0  0  0  0  0
    3.2870    6.3210   17.6770 H   0  0  0  0  0  0  0  0  0  0  0  0
    4.5290    6.1330   18.9000 H   0  0  0  0  0  0  0  0  0  0  0  0
    2.8020    2.1020   17.3520 C   0  0  0  0  0  0  0  0  0  0  0  0
    3.4250    1.7040   16.5410 H   0  0  0  0  0  0  0  0  0  0  0  0
    1.8020    1.6660   17.2460 H   0  0  0  0  0  0  0  0  0  0  0  0
    3.4210    1.6140   18.6480 C   0  0  0  0  0  0  0  0  0  0  0  0
    4.4300    0.7110   18.4770 N   0  0  0  0  0  0  0  0  0  0  0  0
    3.1010    1.9940   19.7670 O   0  0  0  0  0  0  0  0  0  0  0  0
    4.8400    0.3160   19.3140 H   0  0  0  0  0  0  0  0  0  0  0  0
    4.6200    0.2660   17.5910 H   0  0  0  0  0  0  0  0  0  0  0  0
  1 20  1  0  0  0  0
  1  2  1  0  0  0  0
  2  7  1  0  0  0  0
  3  2  2  0  0  0  0
  3  8  1  0  0  0  0
  4  3  1  0  0  0  0
  5  6  1  0  0  0  0
  5  4  2  0  0  0  0
  6  1  2  0  0  0  0
  9  5  1  0  0  0  0
 10  6  1  0  0  0  0
 11 12  1  0  0  0  0
 12 17  1  0  0  0  0
 13 14  1  0  0  0  0
 13 12  2  0  0  0  0
 14 15  1  0  0  0  0
 15 26  1  0  0  0  0
 15 16  1  0  0  0  0
 16 23  1  0  0  0  0
 17 16  2  0  0  0  0
 17 18  1  0  0  0  0
 18 20  1  0  0  0  0
 18 19  2  0  0  0  0
 20 21  1  0  0  0  0
 21 28  1  0  0  0  0
 21 22  1  0  0  0  0
 22 29  1  0  0  0  0
 22 30  1  0  0  0  0
 23 22  1  0  0  0  0
 24 11  1  0  0  0  0
 25 14  1  0  0  0  0
 27 21  1  0  0  0  0
 31  4  1  0  0  0  0
 31 37  1  1  0  0  0
 32 31  1  0  0  0  0
 32 38  1  0  0  0  0
 32 39  1  0  0  0  0
 33 32  1  0  0  0  0
 34 42  1  6  0  0  0
 34 47  1  0  0  0  0
 34 33  1  0  0  0  0
 34 35  1  0  0  0  0
 35 36  1  0  0  0  0
 35 43  1  0  0  0  0
 36 46  1  0  0  0  0
 36 31  1  0  0  0  0
 40 33  1  0  0  0  0
 41 33  1  0  0  0  0
 44 35  1  0  0  0  0
 45 36  1  0  0  0  0
 47 50  1  0  0  0  0
 48 47  1  0  0  0  0
 49 47  1  0  0  0  0
 50 52  2  0  0  0  0
 51 50  1  0  0  0  0
 51 53  1  0  0  0  0
 54 51  1  0  0  0  0
M  END
>  <MODEL>
20

>  <REMARK>
 VINA RESULT:    -7.590      1.647      2.718
 INTER + INTRA:          -9.233
 INTER:                  -8.736
 INTRA:                  -0.497
 UNBOUND:                 0.131
  Name = 
  4 active torsions:
  status: ('A' for Active; 'I' for Inactive)
    1  A    between atoms: N_10  and  C_11
    2  A    between atoms: C_14  and  C_15
    3  A    between atoms: C_18  and  C_19
    4  A    between atoms: C_19  and  C_20
                            x       y       z     vdW  Elec       q    Type
                         _______ _______ _______ _____ _____    ______ ____

>  <TORSDO>
F 4

$$$$
=
 OpenBabel07192307433D

 54 57  0  0  1  0  0  0  0  0999 V2000
    0.1100    9.7550   19.1390 C   0  0  0  0  0  0  0  0  0  0  0  0
    0.6960    9.7510   17.8640 C   0  0  0  0  0  0  0  0  0  0  0  0
    1.8260    8.9690   17.5760 C   0  0  0  0  0  0  0  0  0  0  0  0
    2.4220    8.1760   18.5590 C   0  0  0  0  0  0  0  0  0  0  0  0
    1.8620    8.1940   19.8400 C   0  0  0  0  0  0  0  0  0  0  0  0
    0.7330    8.9740   20.1240 C   0  0  0  0  0  0  0  0  0  0  0  0
    0.3150   10.3600   17.0520 H   0  0  0  0  0  0  0  0  0  0  0  0
    2.2370    9.0020   16.5700 H   0  0  0  0  0  0  0  0  0  0  0  0
    2.2990    7.6060   20.6440 H   0  0  0  0  0  0  0  0  0  0  0  0
    0.3700    8.9520   21.1490 H   0  0  0  0  0  0  0  0  0  0  0  0
    0.4620   13.3370   21.8940 N   0  0  0  0  0  2  0  0  0  0  0  0
   -0.7060   13.5930   21.4200 C   0  0  0  0  0  0  0  0  0  0  0  0
   -1.1090   14.8940   21.6080 N   0  0  0  0  0  0  0  0  0  0  0  0
   -2.1740   15.2670   20.9860 C   0  0  0  0  0  3  0  0  0  0  0  0
   -2.9230   14.4690   20.1870 N   0  0  0  0  0  0  0  0  0  0  0  0
   -2.6560   13.1280   20.0740 C   0  0  0  0  0  0  0  0  0  0  0  0
   -1.5700   12.6110   20.6890 C   0  0  0  0  0  0  0  0  0  0  0  0
   -1.1760   11.1790   20.6990 C   0  0  0  0  0  0  0  0  0  0  0  0
   -0.9860   10.6020   21.7670 O   0  0  0  0  0  0  0  0  0  0  0  0
   -1.0360   10.5740   19.4480 N   0  0  0  0  0  0  0  0  0  0  0  0
   -2.1240   10.7000   18.4760 C   0  0  0  0  0  0  0  0  0  0  0  0
   -3.4630   11.0740   19.1150 C   0  0  0  0  0  0  0  0  0  0  0  0
   -3.5890   12.4770   19.3160 O   0  0  0  0  0  0  0  0  0  0  0  0
    0.7690   14.2190   22.3240 H   0  0  0  0  0  0  0  0  0  0  0  0
   -2.5550   16.2980   21.0740 H   0  0  0  0  0  0  0  0  0  0  0  0
   -3.7950   14.7850   19.7840 H   0  0  0  0  0  0  0  0  0  0  0  0
   -1.8210   11.4290   17.7170 H   0  0  0  0  0  0  0  0  0  0  0  0
   -2.2840    9.7250   18.0070 H   0  0  0  0  0  0  0  0  0  0  0  0
   -3.6600   10.5360   20.0500 H   0  0  0  0  0  0  0  0  0  0  0  0
   -4.2650   10.8010   18.4200 H   0  0  0  0  0  0  0  0  0  0  0  0
    3.6450    7.3210   18.2760 C   0  0  1  0  0  0  0  0  0  0  0  0
    3.4950    5.8730   18.7900 C   0  0  0  0  0  0  0  0  0  0  0  0
    3.3020    4.8600   17.6640 C   0  0  0  0  0  0  0  0  0  0  0  0
    4.4570    4.8770   16.6430 C   0  0  1  0  0  0  0  0  0  0  0  0
    5.0500    6.2890   16.4530 C   0  0  0  0  0  0  0  0  0  0  0  0
    4.0440    7.3860   16.7890 C   0  0  0  0  0  0  0  0  0  0  0  0
    4.4820    7.7530   18.8460 H   0  0  0  0  0  0  0  0  0  0  0  0
    2.6740    5.7860   19.5130 H   0  0  0  0  0  0  0  0  0  0  0  0
    4.4060    5.6010   19.3390 H   0  0  0  0  0  0  0  0  0  0  0  0
    2.3660    5.0840   17.1390 H   0  0  0  0  0  0  0  0  0  0  0  0
    3.1720    3.8570   18.0870 H   0  0  0  0  0  0  0  0  0  0  0  0
    4.0310    4.5570   15.6810 H   0  0  0  0  0  0  0  0  0  0  0  0
    5.9390    6.4240   17.0820 H   0  0  0  0  0  0  0  0  0  0  0  0
    5.3850    6.4110   15.4160 H   0  0  0  0  0  0  0  0  0  0  0  0
    3.1720    7.2820   16.1320 H   0  0  0  0  0  0  0  0  0  0  0  0
    4.4770    8.3680   16.5690 H   0  0  0  0  0  0  0  0  0  0  0  0
    5.5540    3.8680   17.0340 C   0  0  0  0  0  0  0  0  0  0  0  0
    5.3630    2.9060   16.5430 H   0  0  0  0  0  0  0  0  0  0  0  0
    5.5440    3.6960   18.1170 H   0  0  0  0  0  0  0  0  0  0  0  0
    6.9470    4.2970   16.6140 C   0  0  0  0  0  0  0  0  0  0  0  0
    7.8400    4.3710   17.6430 N   0  0  0  0  0  0  0  0  0  0  0  0
    7.2930    4.5320   15.4630 O   0  0  0  0  0  0  0  0  0  0  0  0
    8.7700    4.7030   17.4210 H   0  0  0  0  0  0  0  0  0  0  0  0
    7.5610    4.3320   18.6120 H   0  0  0  0  0  0  0  0  0  0  0  0
  1 20  1  0  0  0  0
  1  6  1  0  0  0  0
  2  1  2  0  0  0  0
  3  2  1  0  0  0  0
  3  4  2  0  0  0  0
  4  5  1  0  0  0  0
  5  6  2  0  0  0  0
  5  9  1  0  0  0  0
  6 10  1  0  0  0  0
  7  2  1  0  0  0  0
  8  3  1  0  0  0  0
 11 24  1  0  0  0  0
 12 13  2  0  0  0  0
 12 11  1  0  0  0  0
 14 25  1  0  0  0  0
 14 13  1  0  0  0  0
 15 14  1  0  0  0  0
 16 15  1  0  0  0  0
 16 17  2  0  0  0  0
 17 18  1  0  0  0  0
 17 12  1  0  0  0  0
 18 19  2  0  0  0  0
 20 18  1  0  0  0  0
 21 22  1  0  0  0  0
 21 20  1  0  0  0  0
 22 23  1  0  0  0  0
 22 29  1  0  0  0  0
 23 16  1  0  0  0  0
 26 15  1  0  0  0  0
 27 21  1  0  0  0  0
 28 21  1  0  0  0  0
 30 22  1  0  0  0  0
 31  4  1  0  0  0  0
 31 32  1  0  0  0  0
 31 37  1  1  0  0  0
 32 39  1  0  0  0  0
 32 38  1  0  0  0  0
 33 41  1  0  0  0  0
 33 32  1  0  0  0  0
 34 42  1  6  0  0  0
 34 47  1  0  0  0  0
 34 33  1  0  0  0  0
 35 34  1  0  0  0  0
 35 36  1  0  0  0  0
 35 43  1  0  0  0  0
 36 31  1  0  0  0  0
 40 33  1  0  0  0  0
 44 35  1  0  0  0  0
 45 36  1  0  0  0  0
 46 36  1  0  0  0  0
 47 49  1  0  0  0  0
 48 47  1  0  0  0  0
 50 47  1  0  0  0  0
 50 51  1  0  0  0  0
 51 54  1  0  0  0  0
 52 50  2  0  0  0  0
 53 51  1  0  0  0  0
M  END
>  <MODEL>
21

>  <REMARK>
 VINA RESULT:    -6.883      2.575      3.273
 INTER + INTRA:          -8.362
 INTER:                  -8.225
 INTRA:                  -0.137
 UNBOUND:                 0.131
  Name = 
  4 active torsions:
  status: ('A' for Active; 'I' for Inactive)
    1  A    between atoms: N_10  and  C_11
    2  A    between atoms: C_14  and  C_15
    3  A    between atoms: C_18  and  C_19
    4  A    between atoms: C_19  and  C_20
                            x       y       z     vdW  Elec       q    Type
                         _______ _______ _______ _____ _____    ______ ____

>  <TORSDO>
F 4

$$$$
=
 OpenBabel07192307433D

 54 57  0  0  1  0  0  0  0  0999 V2000
    5.9520    5.5510   17.9880 C   0  0  0  0  0  0  0  0  0  0  0  0
    5.7050    6.7400   17.2840 C   0  0  0  0  0  0  0  0  0  0  0  0
    6.6120    7.8110   17.3070 C   0  0  0  0  0  0  0  0  0  0  0  0
    7.7920    7.7390   18.0520 C   0  0  0  0  0  0  0  0  0  0  0  0
    8.0340    6.5710   18.7790 C   0  0  0  0  0  0  0  0  0  0  0  0
    7.1280    5.5020   18.7520 C   0  0  0  0  0  0  0  0  0  0  0  0
    4.8010    6.8900   16.7050 H   0  0  0  0  0  0  0  0  0  0  0  0
    6.3710    8.7080   16.7410 H   0  0  0  0  0  0  0  0  0  0  0  0
    8.9310    6.4720   19.3870 H   0  0  0  0  0  0  0  0  0  0  0  0
    7.3770    4.6350   19.3610 H   0  0  0  0  0  0  0  0  0  0  0  0
    2.6070    5.3280   21.0380 N   0  0  0  0  0  2  0  0  0  0  0  0
    2.1790    4.4160   20.2390 C   0  0  0  0  0  0  0  0  0  0  0  0
    0.8500    4.1060   20.4100 N   0  0  0  0  0  0  0  0  0  0  0  0
    0.3110    3.3520   19.5160 C   0  0  0  0  0  3  0  0  0  0  0  0
    0.9610    2.8330   18.4460 N   0  0  0  0  0  0  0  0  0  0  0  0
    2.3150    2.9860   18.2980 C   0  0  0  0  0  0  0  0  0  0  0  0
    3.0010    3.7480   19.1770 C   0  0  0  0  0  0  0  0  0  0  0  0
    4.4690    3.9710   19.1770 C   0  0  0  0  0  0  0  0  0  0  0  0
    5.1260    3.7370   20.1900 O   0  0  0  0  0  0  0  0  0  0  0  0
    5.0140    4.4560   17.9870 N   0  0  0  0  0  0  0  0  0  0  0  0
    4.6960    3.7710   16.7330 C   0  0  0  0  0  0  0  0  0  0  0  0
    4.1930    2.3410   16.9380 C   0  0  0  0  0  0  0  0  0  0  0  0
    2.7990    2.2970   17.2200 O   0  0  0  0  0  0  0  0  0  0  0  0
    1.7980    5.5620   21.6260 H   0  0  0  0  0  0  0  0  0  0  0  0
   -0.7540    3.0690   19.5740 H   0  0  0  0  0  0  0  0  0  0  0  0
    0.5140    2.1810   17.8140 H   0  0  0  0  0  0  0  0  0  0  0  0
    3.9690    4.3800   16.1850 H   0  0  0  0  0  0  0  0  0  0  0  0
    5.6150    3.6780   16.1470 H   0  0  0  0  0  0  0  0  0  0  0  0
    4.7550    1.7910   17.7030 H   0  0  0  0  0  0  0  0  0  0  0  0
    4.3230    1.7920   15.9990 H   0  0  0  0  0  0  0  0  0  0  0  0
    8.7900    8.8840   18.0960 C   0  0  1  0  0  0  0  0  0  0  0  0
    8.4120   10.0430   17.1490 C   0  0  0  0  0  0  0  0  0  0  0  0
    7.9140   11.2800   17.8930 C   0  0  0  0  0  0  0  0  0  0  0  0
    8.9400   11.8200   18.9080 C   0  0  1  0  0  0  0  0  0  0  0  0
    9.7750   10.6920   19.5530 C   0  0  0  0  0  0  0  0  0  0  0  0
    9.0410    9.3540   19.5410 C   0  0  0  0  0  0  0  0  0  0  0  0
    9.7480    8.4940   17.7200 H   0  0  0  0  0  0  0  0  0  0  0  0
    7.6680    9.7300   16.4070 H   0  0  0  0  0  0  0  0  0  0  0  0
    9.3040   10.3290   16.5750 H   0  0  0  0  0  0  0  0  0  0  0  0
    6.9900   11.0250   18.4280 H   0  0  0  0  0  0  0  0  0  0  0  0
    7.6330   12.0570   17.1720 H   0  0  0  0  0  0  0  0  0  0  0  0
    8.3650   12.3120   19.7050 H   0  0  0  0  0  0  0  0  0  0  0  0
   10.7320   10.5720   19.0290 H   0  0  0  0  0  0  0  0  0  0  0  0
   10.0200   10.9620   20.5860 H   0  0  0  0  0  0  0  0  0  0  0  0
    8.1040    9.4580   20.1020 H   0  0  0  0  0  0  0  0  0  0  0  0
    9.6340    8.6010   20.0740 H   0  0  0  0  0  0  0  0  0  0  0  0
    9.8530   12.8770   18.2600 C   0  0  0  0  0  0  0  0  0  0  0  0
    9.9270   12.6900   17.1810 H   0  0  0  0  0  0  0  0  0  0  0  0
   10.8650   12.8160   18.6770 H   0  0  0  0  0  0  0  0  0  0  0  0
    9.3390   14.2960   18.4150 C   0  0  0  0  0  0  0  0  0  0  0  0
    9.6430   15.1150   17.3670 N   0  0  0  0  0  0  0  0  0  0  0  0
    8.6780   14.7050   19.3610 O   0  0  0  0  0  0  0  0  0  0  0  0
    9.3670   16.0860   17.4470 H   0  0  0  0  0  0  0  0  0  0  0  0
   10.3050   14.8600   16.6480 H   0  0  0  0  0  0  0  0  0  0  0  0
  1  6  1  0  0  0  0
  2  3  1  0  0  0  0
  2  1  2  0  0  0  0
  3  4  2  0  0  0  0
  4 31  1  0  0  0  0
  4  5  1  0  0  0  0
  5  9  1  0  0  0  0
  6  5  2  0  0  0  0
  6 10  1  0  0  0  0
  7  2  1  0  0  0  0
  8  3  1  0  0  0  0
 11 24  1  0  0  0  0
 12 13  2  0  0  0  0
 12 11  1  0  0  0  0
 14 25  1  0  0  0  0
 14 13  1  0  0  0  0
 15 14  1  0  0  0  0
 16 15  1  0  0  0  0
 16 17  2  0  0  0  0
 17 18  1  0  0  0  0
 17 12  1  0  0  0  0
 18 19  2  0  0  0  0
 20  1  1  0  0  0  0
 20 18  1  0  0  0  0
 21 22  1  0  0  0  0
 21 20  1  0  0  0  0
 22 23  1  0  0  0  0
 22 29  1  0  0  0  0
 23 16  1  0  0  0  0
 26 15  1  0  0  0  0
 27 21  1  0  0  0  0
 28 21  1  0  0  0  0
 30 22  1  0  0  0  0
 31 37  1  6  0  0  0
 31 36  1  0  0  0  0
 32 33  1  0  0  0  0
 32 31  1  0  0  0  0
 33 40  1  0  0  0  0
 33 34  1  0  0  0  0
 34 35  1  0  0  0  0
 34 42  1  1  0  0  0
 35 44  1  0  0  0  0
 36 35  1  0  0  0  0
 36 46  1  0  0  0  0
 36 45  1  0  0  0  0
 38 32  1  0  0  0  0
 39 32  1  0  0  0  0
 41 33  1  0  0  0  0
 43 35  1  0  0  0  0
 47 50  1  0  0  0  0
 47 49  1  0  0  0  0
 47 34  1  0  0  0  0
 48 47  1  0  0  0  0
 50 52  2  0  0  0  0
 51 53  1  0  0  0  0
 51 50  1  0  0  0  0
 54 51  1  0  0  0  0
M  END
>  <MODEL>
22

>  <REMARK>
 VINA RESULT:    -6.681      6.218     10.143
 INTER + INTRA:          -8.112
 INTER:                  -7.543
 INTRA:                  -0.569
 UNBOUND:                 0.131
  Name = 
  4 active torsions:
  status: ('A' for Active; 'I' for Inactive)
    1  A    between atoms: N_10  and  C_11
    2  A    between atoms: C_14  and  C_15
    3  A    between atoms: C_18  and  C_19
    4  A    between atoms: C_19  and  C_20
                            x       y       z     vdW  Elec       q    Type
                         _______ _______ _______ _____ _____    ______ ____

>  <TORSDO>
F 4

$$$$
