=
 OpenBabel07192307433D

 24 24  0  0  0  0  0  0  0  0999 V2000
    2.8530    4.8430   18.7600 C   0  0  0  0  0  0  0  0  0  0  0  0
    3.8690    4.2220   18.0040 C   0  0  0  0  0  0  0  0  0  0  0  0
    3.6860    2.9250   17.4910 C   0  0  0  0  0  0  0  0  0  0  0  0
    2.4990    2.2360   17.7290 C   0  0  0  0  0  0  0  0  0  0  0  0
    1.4950    2.8450   18.4670 C   0  0  0  0  0  0  0  0  0  0  0  0
    1.6580    4.1320   18.9750 C   0  0  0  0  0  0  0  0  0  0  0  0
    0.3500    2.1900   18.6930 F   0  0  0  0  0  0  0  0  0  0  0  0
    4.4720    2.4390   16.9160 H   0  0  0  0  0  0  0  0  0  0  0  0
    2.3520    1.2320   17.3440 H   0  0  0  0  0  0  0  0  0  0  0  0
    0.8390    4.5700   19.5400 H   0  0  0  0  0  0  0  0  0  0  0  0
    2.9570    6.2360   19.3150 C   0  0  0  0  0  0  0  0  0  0  0  0
    3.7200    6.8050   18.7770 H   0  0  0  0  0  0  0  0  0  0  0  0
    2.0080    6.7750   19.2120 H   0  0  0  0  0  0  0  0  0  0  0  0
    3.1860    6.2200   20.3850 H   0  0  0  0  0  0  0  0  0  0  0  0
    5.4070    5.0450   17.6180 S   0  0  0  0  0  0  0  0  0  0  0  0
    6.1030    4.3020   16.5900 O   0  0  0  0  0  0  0  0  0  0  0  0
    5.1250    6.4540   17.4300 O   0  0  0  0  0  0  0  0  0  0  0  0
    6.2810    4.9450   19.0280 N   0  0  0  0  0  0  0  0  0  0  0  0
    7.4340    5.6530   19.2890 C   0  0  0  0  0  0  0  0  0  0  0  0
    7.9790    6.4150   18.5100 O   0  0  0  0  0  0  0  0  0  0  0  0
    7.9320    5.4150   20.5230 N   0  0  0  0  0  0  0  0  0  0  0  0
    5.9450    4.2310   19.6590 H   0  0  0  0  0  0  0  0  0  0  0  0
    8.6940    6.0180   20.8060 H   0  0  0  0  0  0  0  0  0  0  0  0
    7.3560    5.0170   21.2470 H   0  0  0  0  0  0  0  0  0  0  0  0
  1  6  1  0  0  0  0
  1 11  1  0  0  0  0
  2  1  2  0  0  0  0
  3  4  2  0  0  0  0
  3  2  1  0  0  0  0
  4  5  1  0  0  0  0
  5  7  1  0  0  0  0
  5  6  2  0  0  0  0
  6 10  1  0  0  0  0
  8  3  1  0  0  0  0
  9  4  1  0  0  0  0
 11 14  1  0  0  0  0
 12 11  1  0  0  0  0
 13 11  1  0  0  0  0
 15  2  1  0  0  0  0
 15 18  1  0  0  0  0
 16 15  2  0  0  0  0
 17 15  2  0  0  0  0
 18 19  1  0  0  0  0
 18 22  1  0  0  0  0
 19 21  1  0  0  0  0
 20 19  2  0  0  0  0
 21 23  1  0  0  0  0
 21 24  1  0  0  0  0
M  END
>  <MODEL>
1

>  <REMARK>
 VINA RESULT:    -6.771      0.000      0.000
 INTER + INTRA:          -7.633
 INTER:                  -7.946
 INTRA:                   0.313
 UNBOUND:                 0.127
  Name = 
  3 active torsions:
  status: ('A' for Active; 'I' for Inactive)
    1  A    between atoms: C_1  and  C_2
    2  A    between atoms: C_3  and  S_9
    3  A    between atoms: S_9  and  N_12
                            x       y       z     vdW  Elec       q    Type
                         _______ _______ _______ _____ _____    ______ ____

>  <TORSDO>
F 3

$$$$
=
 OpenBabel07192307433D

 24 24  0  0  0  0  0  0  0  0999 V2000
    2.0930    3.9890   18.7760 C   0  0  0  0  0  0  0  0  0  0  0  0
    3.4940    3.8280   18.7430 C   0  0  0  0  0  0  0  0  0  0  0  0
    4.1570    3.1240   19.7640 C   0  0  0  0  0  0  0  0  0  0  0  0
    3.4360    2.5810   20.8260 C   0  0  0  0  0  0  0  0  0  0  0  0
    2.0570    2.7320   20.8590 C   0  0  0  0  0  0  0  0  0  0  0  0
    1.3860    3.4200   19.8510 C   0  0  0  0  0  0  0  0  0  0  0  0
    1.3590    2.2060   21.8730 F   0  0  0  0  0  0  0  0  0  0  0  0
    5.2390    3.0070   19.7470 H   0  0  0  0  0  0  0  0  0  0  0  0
    3.9390    2.0430   21.6220 H   0  0  0  0  0  0  0  0  0  0  0  0
    0.3040    3.5030   19.9180 H   0  0  0  0  0  0  0  0  0  0  0  0
    1.3070    4.6990   17.7100 C   0  0  0  0  0  0  0  0  0  0  0  0
    1.2730    5.7720   17.9130 H   0  0  0  0  0  0  0  0  0  0  0  0
    1.7660    4.5630   16.7230 H   0  0  0  0  0  0  0  0  0  0  0  0
    0.2920    4.2990   17.6330 H   0  0  0  0  0  0  0  0  0  0  0  0
    4.4930    4.4590   17.4030 S   0  0  0  0  0  0  0  0  0  0  0  0
    4.2060    3.7100   16.1990 O   0  0  0  0  0  0  0  0  0  0  0  0
    4.3810    5.9030   17.4030 O   0  0  0  0  0  0  0  0  0  0  0  0
    6.0520    4.1280   17.8740 N   0  0  0  0  0  0  0  0  0  0  0  0
    7.1760    4.4460   17.1440 C   0  0  0  0  0  0  0  0  0  0  0  0
    7.1730    4.9780   16.0480 O   0  0  0  0  0  0  0  0  0  0  0  0
    8.3260    4.0980   17.7660 N   0  0  0  0  0  0  0  0  0  0  0  0
    6.1070    3.5720   18.7160 H   0  0  0  0  0  0  0  0  0  0  0  0
    9.1730    4.4390   17.3310 H   0  0  0  0  0  0  0  0  0  0  0  0
    8.3460    3.9200   18.7560 H   0  0  0  0  0  0  0  0  0  0  0  0
  1  6  1  0  0  0  0
  2  1  2  0  0  0  0
  2  3  1  0  0  0  0
  3  4  2  0  0  0  0
  4  5  1  0  0  0  0
  4  9  1  0  0  0  0
  5  7  1  0  0  0  0
  6 10  1  0  0  0  0
  6  5  2  0  0  0  0
  8  3  1  0  0  0  0
 11 12  1  0  0  0  0
 11  1  1  0  0  0  0
 13 11  1  0  0  0  0
 14 11  1  0  0  0  0
 15 18  1  0  0  0  0
 15  2  1  0  0  0  0
 16 15  2  0  0  0  0
 17 15  2  0  0  0  0
 18 22  1  0  0  0  0
 19 21  1  0  0  0  0
 19 18  1  0  0  0  0
 20 19  2  0  0  0  0
 21 24  1  0  0  0  0
 23 21  1  0  0  0  0
M  END
>  <MODEL>
2

>  <REMARK>
 VINA RESULT:    -6.644      1.976      2.266
 INTER + INTRA:          -7.488
 INTER:                  -7.350
 INTRA:                  -0.138
 UNBOUND:                 0.127
  Name = 
  3 active torsions:
  status: ('A' for Active; 'I' for Inactive)
    1  A    between atoms: C_1  and  C_2
    2  A    between atoms: C_3  and  S_9
    3  A    between atoms: S_9  and  N_12
                            x       y       z     vdW  Elec       q    Type
                         _______ _______ _______ _____ _____    ______ ____

>  <TORSDO>
F 3

$$$$
=
 OpenBabel07192307433D

 24 24  0  0  0  0  0  0  0  0999 V2000
    3.0800    2.7320   19.0820 C   0  0  0  0  0  0  0  0  0  0  0  0
    3.3960    4.1040   18.9970 C   0  0  0  0  0  0  0  0  0  0  0  0
    2.9590    5.0010   19.9870 C   0  0  0  0  0  0  0  0  0  0  0  0
    2.2000    4.5450   21.0630 C   0  0  0  0  0  0  0  0  0  0  0  0
    1.8910    3.1950   21.1540 C   0  0  0  0  0  0  0  0  0  0  0  0
    2.3250    2.2940   20.1860 C   0  0  0  0  0  0  0  0  0  0  0  0
    1.1680    2.7510   22.1900 F   0  0  0  0  0  0  0  0  0  0  0  0
    3.1930    6.0620   19.9190 H   0  0  0  0  0  0  0  0  0  0  0  0
    1.8510    5.2310   21.8280 H   0  0  0  0  0  0  0  0  0  0  0  0
    2.0640    1.2450   20.3060 H   0  0  0  0  0  0  0  0  0  0  0  0
    3.5360    1.7050   18.0850 C   0  0  0  0  0  0  0  0  0  0  0  0
    2.9420    1.7730   17.1690 H   0  0  0  0  0  0  0  0  0  0  0  0
    4.5860    1.8580   17.8100 H   0  0  0  0  0  0  0  0  0  0  0  0
    3.4720    0.6940   18.4990 H   0  0  0  0  0  0  0  0  0  0  0  0
    4.3950    4.7700   17.6730 S   0  0  0  0  0  0  0  0  0  0  0  0
    4.0050    4.1550   16.4230 O   0  0  0  0  0  0  0  0  0  0  0  0
    4.4000    6.2130   17.8010 O   0  0  0  0  0  0  0  0  0  0  0  0
    5.9380    4.2790   18.0470 N   0  0  0  0  0  0  0  0  0  0  0  0
    7.0600    4.5880   17.3110 C   0  0  0  0  0  0  0  0  0  0  0  0
    7.0630    5.2310   16.2750 O   0  0  0  0  0  0  0  0  0  0  0  0
    8.1980    4.0940   17.8480 N   0  0  0  0  0  0  0  0  0  0  0  0
    5.9760    3.6360   18.8260 H   0  0  0  0  0  0  0  0  0  0  0  0
    9.0550    4.4150   17.4190 H   0  0  0  0  0  0  0  0  0  0  0  0
    8.2350    3.8120   18.8140 H   0  0  0  0  0  0  0  0  0  0  0  0
  1  6  1  0  0  0  0
  2  1  2  0  0  0  0
  2  3  1  0  0  0  0
  3  4  2  0  0  0  0
  4  5  1  0  0  0  0
  4  9  1  0  0  0  0
  5  7  1  0  0  0  0
  6 10  1  0  0  0  0
  6  5  2  0  0  0  0
  8  3  1  0  0  0  0
 11 14  1  0  0  0  0
 11  1  1  0  0  0  0
 12 11  1  0  0  0  0
 13 11  1  0  0  0  0
 15 17  2  0  0  0  0
 15 18  1  0  0  0  0
 15  2  1  0  0  0  0
 16 15  2  0  0  0  0
 18 22  1  0  0  0  0
 19 21  1  0  0  0  0
 19 18  1  0  0  0  0
 20 19  2  0  0  0  0
 21 24  1  0  0  0  0
 23 21  1  0  0  0  0
M  END
>  <MODEL>
3

>  <REMARK>
 VINA RESULT:    -6.618      1.909      2.721
 INTER + INTRA:          -7.457
 INTER:                  -7.594
 INTRA:                   0.136
 UNBOUND:                 0.127
  Name = 
  3 active torsions:
  status: ('A' for Active; 'I' for Inactive)
    1  A    between atoms: C_1  and  C_2
    2  A    between atoms: C_3  and  S_9
    3  A    between atoms: S_9  and  N_12
                            x       y       z     vdW  Elec       q    Type
                         _______ _______ _______ _____ _____    ______ ____

>  <TORSDO>
F 3

$$$$
=
 OpenBabel07192307433D

 24 24  0  0  0  0  0  0  0  0999 V2000
    2.2980    4.6990   19.3160 C   0  0  0  0  0  0  0  0  0  0  0  0
    3.3990    4.4250   18.4770 C   0  0  0  0  0  0  0  0  0  0  0  0
    3.4260    3.2600   17.6910 C   0  0  0  0  0  0  0  0  0  0  0  0
    2.3650    2.3570   17.7350 C   0  0  0  0  0  0  0  0  0  0  0  0
    1.2780    2.6250   18.5540 C   0  0  0  0  0  0  0  0  0  0  0  0
    1.2340    3.7780   19.3320 C   0  0  0  0  0  0  0  0  0  0  0  0
    0.2530    1.7640   18.5950 F   0  0  0  0  0  0  0  0  0  0  0  0
    4.2780    3.0410   17.0500 H   0  0  0  0  0  0  0  0  0  0  0  0
    2.3810    1.4510   17.1370 H   0  0  0  0  0  0  0  0  0  0  0  0
    0.3550    3.9480   19.9510 H   0  0  0  0  0  0  0  0  0  0  0  0
    2.1780    5.9350   20.1620 C   0  0  0  0  0  0  0  0  0  0  0  0
    1.6870    6.7350   19.6000 H   0  0  0  0  0  0  0  0  0  0  0  0
    1.5770    5.7440   21.0590 H   0  0  0  0  0  0  0  0  0  0  0  0
    3.1570    6.2700   20.5140 H   0  0  0  0  0  0  0  0  0  0  0  0
    4.7840    5.5440   18.3300 S   0  0  0  0  0  0  0  0  0  0  0  0
    4.3270    6.8000   17.7770 O   0  0  0  0  0  0  0  0  0  0  0  0
    5.5100    5.5240   19.5840 O   0  0  0  0  0  0  0  0  0  0  0  0
    5.7790    4.8070   17.2210 N   0  0  0  0  0  0  0  0  0  0  0  0
    6.9710    5.3290   16.7680 C   0  0  0  0  0  0  0  0  0  0  0  0
    7.4320    6.4100   17.0930 O   0  0  0  0  0  0  0  0  0  0  0  0
    7.6050    4.5160   15.8930 N   0  0  0  0  0  0  0  0  0  0  0  0
    5.3830    3.9690   16.8210 H   0  0  0  0  0  0  0  0  0  0  0  0
    8.5450    4.7960   15.6460 H   0  0  0  0  0  0  0  0  0  0  0  0
    7.3770    3.5370   15.8360 H   0  0  0  0  0  0  0  0  0  0  0  0
  1  6  1  0  0  0  0
  1 11  1  0  0  0  0
  2  1  2  0  0  0  0
  3  4  2  0  0  0  0
  3  2  1  0  0  0  0
  4  5  1  0  0  0  0
  5  7  1  0  0  0  0
  5  6  2  0  0  0  0
  6 10  1  0  0  0  0
  8  3  1  0  0  0  0
  9  4  1  0  0  0  0
 11 14  1  0  0  0  0
 11 13  1  0  0  0  0
 12 11  1  0  0  0  0
 15  2  1  0  0  0  0
 15 17  2  0  0  0  0
 16 15  2  0  0  0  0
 18 15  1  0  0  0  0
 19 20  2  0  0  0  0
 19 18  1  0  0  0  0
 21 19  1  0  0  0  0
 22 18  1  0  0  0  0
 23 21  1  0  0  0  0
 24 21  1  0  0  0  0
M  END
>  <MODEL>
4

>  <REMARK>
 VINA RESULT:    -6.530      1.640      1.932
 INTER + INTRA:          -7.357
 INTER:                  -7.217
 INTRA:                  -0.140
 UNBOUND:                 0.127
  Name = 
  3 active torsions:
  status: ('A' for Active; 'I' for Inactive)
    1  A    between atoms: C_1  and  C_2
    2  A    between atoms: C_3  and  S_9
    3  A    between atoms: S_9  and  N_12
                            x       y       z     vdW  Elec       q    Type
                         _______ _______ _______ _____ _____    ______ ____

>  <TORSDO>
F 3

$$$$
=
 OpenBabel07192307433D

 24 24  0  0  0  0  0  0  0  0999 V2000
    5.9610    6.5970   17.0650 C   0  0  0  0  0  0  0  0  0  0  0  0
    5.9760    5.5140   17.9690 C   0  0  0  0  0  0  0  0  0  0  0  0
    6.9640    5.4290   18.9660 C   0  0  0  0  0  0  0  0  0  0  0  0
    7.9460    6.4120   19.0690 C   0  0  0  0  0  0  0  0  0  0  0  0
    7.9320    7.4810   18.1860 C   0  0  0  0  0  0  0  0  0  0  0  0
    6.9560    7.5840   17.1990 C   0  0  0  0  0  0  0  0  0  0  0  0
    8.8690    8.4320   18.2850 F   0  0  0  0  0  0  0  0  0  0  0  0
    6.9840    4.5890   19.6580 H   0  0  0  0  0  0  0  0  0  0  0  0
    8.7170    6.3500   19.8300 H   0  0  0  0  0  0  0  0  0  0  0  0
    6.9820    8.4460   16.5360 H   0  0  0  0  0  0  0  0  0  0  0  0
    4.9230    6.7790   15.9940 C   0  0  0  0  0  0  0  0  0  0  0  0
    5.3220    6.4780   15.0220 H   0  0  0  0  0  0  0  0  0  0  0  0
    4.0370    6.1640   16.1930 H   0  0  0  0  0  0  0  0  0  0  0  0
    4.5740    7.8150   15.9520 H   0  0  0  0  0  0  0  0  0  0  0  0
    4.7350    4.2290   17.9340 S   0  0  0  0  0  0  0  0  0  0  0  0
    3.4520    4.7930   18.2920 O   0  0  0  0  0  0  0  0  0  0  0  0
    4.8850    3.4970   16.6930 O   0  0  0  0  0  0  0  0  0  0  0  0
    5.2070    3.1820   19.1350 N   0  0  0  0  0  0  0  0  0  0  0  0
    4.4790    2.0910   19.5560 C   0  0  0  0  0  0  0  0  0  0  0  0
    3.3830    1.7730   19.1290 O   0  0  0  0  0  0  0  0  0  0  0  0
    5.1010    1.3830   20.5260 N   0  0  0  0  0  0  0  0  0  0  0  0
    6.0480    3.4730   19.6130 H   0  0  0  0  0  0  0  0  0  0  0  0
    4.6680    0.5000   20.7620 H   0  0  0  0  0  0  0  0  0  0  0  0
    6.0910    1.4750   20.6810 H   0  0  0  0  0  0  0  0  0  0  0  0
  1  6  2  0  0  0  0
  1  2  1  0  0  0  0
  2  3  2  0  0  0  0
  3  4  1  0  0  0  0
  3  8  1  0  0  0  0
  4  9  1  0  0  0  0
  5  7  1  0  0  0  0
  5  4  2  0  0  0  0
  6  5  1  0  0  0  0
 10  6  1  0  0  0  0
 11 13  1  0  0  0  0
 11  1  1  0  0  0  0
 12 11  1  0  0  0  0
 14 11  1  0  0  0  0
 15  2  1  0  0  0  0
 15 16  2  0  0  0  0
 15 18  1  0  0  0  0
 17 15  2  0  0  0  0
 18 19  1  0  0  0  0
 18 22  1  0  0  0  0
 19 21  1  0  0  0  0
 20 19  2  0  0  0  0
 21 24  1  0  0  0  0
 21 23  1  0  0  0  0
M  END
>  <MODEL>
5

>  <REMARK>
 VINA RESULT:    -6.479      3.883      5.396
 INTER + INTRA:          -7.298
 INTER:                  -7.172
 INTRA:                  -0.127
 UNBOUND:                 0.127
  Name = 
  3 active torsions:
  status: ('A' for Active; 'I' for Inactive)
    1  A    between atoms: C_1  and  C_2
    2  A    between atoms: C_3  and  S_9
    3  A    between atoms: S_9  and  N_12
                            x       y       z     vdW  Elec       q    Type
                         _______ _______ _______ _____ _____    ______ ____

>  <TORSDO>
F 3

$$$$
=
 OpenBabel07192307433D

 24 24  0  0  0  0  0  0  0  0999 V2000
    2.7300    5.0530   18.0550 C   0  0  0  0  0  0  0  0  0  0  0  0
    3.6910    4.2540   17.3990 C   0  0  0  0  0  0  0  0  0  0  0  0
    3.5060    2.8650   17.2840 C   0  0  0  0  0  0  0  0  0  0  0  0
    2.3730    2.2590   17.8240 C   0  0  0  0  0  0  0  0  0  0  0  0
    1.4240    3.0410   18.4660 C   0  0  0  0  0  0  0  0  0  0  0  0
    1.5890    4.4190   18.5800 C   0  0  0  0  0  0  0  0  0  0  0  0
    0.3310    2.4650   18.9800 F   0  0  0  0  0  0  0  0  0  0  0  0
    4.2500    2.2440   16.7870 H   0  0  0  0  0  0  0  0  0  0  0  0
    2.2270    1.1860   17.7470 H   0  0  0  0  0  0  0  0  0  0  0  0
    0.8130    4.9900   19.0840 H   0  0  0  0  0  0  0  0  0  0  0  0
    2.8370    6.5450   18.1910 C   0  0  0  0  0  0  0  0  0  0  0  0
    3.8350    6.8260   18.5390 H   0  0  0  0  0  0  0  0  0  0  0  0
    2.6700    7.0440   17.2300 H   0  0  0  0  0  0  0  0  0  0  0  0
    2.0780    6.9360   18.8760 H   0  0  0  0  0  0  0  0  0  0  0  0
    5.1530    4.9500   16.6450 S   0  0  0  0  0  0  0  0  0  0  0  0
    4.8900    6.3210   16.2650 O   0  0  0  0  0  0  0  0  0  0  0  0
    6.2850    4.6370   17.4940 O   0  0  0  0  0  0  0  0  0  0  0  0
    5.3620    4.0480   15.2650 N   0  0  0  0  0  0  0  0  0  0  0  0
    6.3740    4.2370   14.3500 C   0  0  0  0  0  0  0  0  0  0  0  0
    7.2250    5.1070   14.4150 O   0  0  0  0  0  0  0  0  0  0  0  0
    6.3390    3.3480   13.3320 N   0  0  0  0  0  0  0  0  0  0  0  0
    4.6100    3.3950   15.0950 H   0  0  0  0  0  0  0  0  0  0  0  0
    7.1420    3.3610   12.7170 H   0  0  0  0  0  0  0  0  0  0  0  0
    5.8270    2.4840   13.4150 H   0  0  0  0  0  0  0  0  0  0  0  0
  1 11  1  0  0  0  0
  1  6  1  0  0  0  0
  2  1  2  0  0  0  0
  3  2  1  0  0  0  0
  3  4  2  0  0  0  0
  4  5  1  0  0  0  0
  5  6  2  0  0  0  0
  5  7  1  0  0  0  0
  6 10  1  0  0  0  0
  8  3  1  0  0  0  0
  9  4  1  0  0  0  0
 11 12  1  0  0  0  0
 11 14  1  0  0  0  0
 13 11  1  0  0  0  0
 15  2  1  0  0  0  0
 15 17  2  0  0  0  0
 16 15  2  0  0  0  0
 18 15  1  0  0  0  0
 19 20  2  0  0  0  0
 19 18  1  0  0  0  0
 21 24  1  0  0  0  0
 21 19  1  0  0  0  0
 22 18  1  0  0  0  0
 23 21  1  0  0  0  0
M  END
>  <MODEL>
6

>  <REMARK>
 VINA RESULT:    -6.349      2.378      3.001
 INTER + INTRA:          -7.149
 INTER:                  -7.459
 INTRA:                   0.310
 UNBOUND:                 0.127
  Name = 
  3 active torsions:
  status: ('A' for Active; 'I' for Inactive)
    1  A    between atoms: C_1  and  C_2
    2  A    between atoms: C_3  and  S_9
    3  A    between atoms: S_9  and  N_12
                            x       y       z     vdW  Elec       q    Type
                         _______ _______ _______ _____ _____    ______ ____

>  <TORSDO>
F 3

$$$$
=
 OpenBabel07192307433D

 24 24  0  0  0  0  0  0  0  0999 V2000
    6.2780    4.9970   17.9440 C   0  0  0  0  0  0  0  0  0  0  0  0
    5.0780    4.2740   17.7770 C   0  0  0  0  0  0  0  0  0  0  0  0
    4.6510    3.8850   16.4950 C   0  0  0  0  0  0  0  0  0  0  0  0
    5.4050    4.2160   15.3710 C   0  0  0  0  0  0  0  0  0  0  0  0
    6.5880    4.9230   15.5320 C   0  0  0  0  0  0  0  0  0  0  0  0
    7.0290    5.3080   16.7950 C   0  0  0  0  0  0  0  0  0  0  0  0
    7.3210    5.2380   14.4560 F   0  0  0  0  0  0  0  0  0  0  0  0
    3.7200    3.3350   16.3620 H   0  0  0  0  0  0  0  0  0  0  0  0
    5.0790    3.9270   14.3780 H   0  0  0  0  0  0  0  0  0  0  0  0
    7.9670    5.8530   16.8690 H   0  0  0  0  0  0  0  0  0  0  0  0
    6.8190    5.4210   19.2800 C   0  0  0  0  0  0  0  0  0  0  0  0
    6.0770    6.0140   19.8210 H   0  0  0  0  0  0  0  0  0  0  0  0
    7.0660    4.5520   19.9010 H   0  0  0  0  0  0  0  0  0  0  0  0
    7.7460    5.9920   19.1680 H   0  0  0  0  0  0  0  0  0  0  0  0
    4.0670    3.7740   19.1630 S   0  0  0  0  0  0  0  0  0  0  0  0
    4.7530    2.7410   19.9080 O   0  0  0  0  0  0  0  0  0  0  0  0
    3.6100    4.9720   19.8370 O   0  0  0  0  0  0  0  0  0  0  0  0
    2.7170    3.1110   18.4570 N   0  0  0  0  0  0  0  0  0  0  0  0
    1.6840    2.5150   19.1460 C   0  0  0  0  0  0  0  0  0  0  0  0
    1.6410    2.3660   20.3550 O   0  0  0  0  0  0  0  0  0  0  0  0
    0.6880    2.0850   18.3380 N   0  0  0  0  0  0  0  0  0  0  0  0
    2.7600    3.0920   17.4480 H   0  0  0  0  0  0  0  0  0  0  0  0
   -0.1490    1.7710   18.8120 H   0  0  0  0  0  0  0  0  0  0  0  0
    0.5900    2.4420   17.4010 H   0  0  0  0  0  0  0  0  0  0  0  0
  1 11  1  0  0  0  0
  2  1  1  0  0  0  0
  2 15  1  0  0  0  0
  3  2  2  0  0  0  0
  4  5  2  0  0  0  0
  4  3  1  0  0  0  0
  5  6  1  0  0  0  0
  6 10  1  0  0  0  0
  6  1  2  0  0  0  0
  7  5  1  0  0  0  0
  8  3  1  0  0  0  0
  9  4  1  0  0  0  0
 11 12  1  0  0  0  0
 11 13  1  0  0  0  0
 14 11  1  0  0  0  0
 15 17  2  0  0  0  0
 15 16  2  0  0  0  0
 18 19  1  0  0  0  0
 18 15  1  0  0  0  0
 19 20  2  0  0  0  0
 21 23  1  0  0  0  0
 21 19  1  0  0  0  0
 22 18  1  0  0  0  0
 24 21  1  0  0  0  0
M  END
>  <MODEL>
7

>  <REMARK>
 VINA RESULT:    -6.310      3.996      5.285
 INTER + INTRA:          -7.105
 INTER:                  -6.982
 INTRA:                  -0.123
 UNBOUND:                 0.127
  Name = 
  3 active torsions:
  status: ('A' for Active; 'I' for Inactive)
    1  A    between atoms: C_1  and  C_2
    2  A    between atoms: C_3  and  S_9
    3  A    between atoms: S_9  and  N_12
                            x       y       z     vdW  Elec       q    Type
                         _______ _______ _______ _____ _____    ______ ____

>  <TORSDO>
F 3

$$$$
=
 OpenBabel07192307433D

 24 24  0  0  0  0  0  0  0  0999 V2000
    6.4620    5.0890   17.2590 C   0  0  0  0  0  0  0  0  0  0  0  0
    5.2220    4.4490   17.0520 C   0  0  0  0  0  0  0  0  0  0  0  0
    4.8320    4.0490   15.7620 C   0  0  0  0  0  0  0  0  0  0  0  0
    5.6650    4.2860   14.6700 C   0  0  0  0  0  0  0  0  0  0  0  0
    6.8880    4.9090   14.8700 C   0  0  0  0  0  0  0  0  0  0  0  0
    7.2910    5.3040   16.1430 C   0  0  0  0  0  0  0  0  0  0  0  0
    7.6950    5.1320   13.8260 F   0  0  0  0  0  0  0  0  0  0  0  0
    3.8710    3.5650   15.5970 H   0  0  0  0  0  0  0  0  0  0  0  0
    5.3680    3.9870   13.6700 H   0  0  0  0  0  0  0  0  0  0  0  0
    8.2630    5.7810   16.2500 H   0  0  0  0  0  0  0  0  0  0  0  0
    6.9660    5.5180   18.6090 C   0  0  0  0  0  0  0  0  0  0  0  0
    7.4650    4.6850   19.1110 H   0  0  0  0  0  0  0  0  0  0  0  0
    7.6940    6.3330   18.5180 H   0  0  0  0  0  0  0  0  0  0  0  0
    6.1530    5.9000   19.2320 H   0  0  0  0  0  0  0  0  0  0  0  0
    4.1080    4.0730   18.3970 S   0  0  0  0  0  0  0  0  0  0  0  0
    3.9020    5.2620   19.1950 O   0  0  0  0  0  0  0  0  0  0  0  0
    2.9710    3.3610   17.8500 O   0  0  0  0  0  0  0  0  0  0  0  0
    4.9400    2.9600   19.3090 N   0  0  0  0  0  0  0  0  0  0  0  0
    4.4420    2.3340   20.4300 C   0  0  0  0  0  0  0  0  0  0  0  0
    3.3440    2.5390   20.9170 O   0  0  0  0  0  0  0  0  0  0  0  0
    5.3090    1.4480   20.9690 N   0  0  0  0  0  0  0  0  0  0  0  0
    5.9030    2.8480   19.0240 H   0  0  0  0  0  0  0  0  0  0  0  0
    4.9310    0.8670   21.7060 H   0  0  0  0  0  0  0  0  0  0  0  0
    6.0780    1.0820   20.4320 H   0  0  0  0  0  0  0  0  0  0  0  0
  1 11  1  0  0  0  0
  2  1  1  0  0  0  0
  2 15  1  0  0  0  0
  3  2  2  0  0  0  0
  4  5  2  0  0  0  0
  4  3  1  0  0  0  0
  5  6  1  0  0  0  0
  6 10  1  0  0  0  0
  6  1  2  0  0  0  0
  7  5  1  0  0  0  0
  8  3  1  0  0  0  0
  9  4  1  0  0  0  0
 11 12  1  0  0  0  0
 11 14  1  0  0  0  0
 13 11  1  0  0  0  0
 15 16  2  0  0  0  0
 15 18  1  0  0  0  0
 17 15  2  0  0  0  0
 18 19  1  0  0  0  0
 19 20  2  0  0  0  0
 19 21  1  0  0  0  0
 21 23  1  0  0  0  0
 22 18  1  0  0  0  0
 24 21  1  0  0  0  0
M  END
>  <MODEL>
8

>  <REMARK>
 VINA RESULT:    -6.298      3.892      4.902
 INTER + INTRA:          -7.091
 INTER:                  -7.194
 INTRA:                   0.102
 UNBOUND:                 0.127
  Name = 
  3 active torsions:
  status: ('A' for Active; 'I' for Inactive)
    1  A    between atoms: C_1  and  C_2
    2  A    between atoms: C_3  and  S_9
    3  A    between atoms: S_9  and  N_12
                            x       y       z     vdW  Elec       q    Type
                         _______ _______ _______ _____ _____    ______ ____

>  <TORSDO>
F 3

$$$$
=
 OpenBabel07192307433D

 24 24  0  0  0  0  0  0  0  0999 V2000
    5.8160    4.2880   16.9160 C   0  0  0  0  0  0  0  0  0  0  0  0
    4.9170    4.1060   17.9880 C   0  0  0  0  0  0  0  0  0  0  0  0
    5.1660    4.7010   19.2370 C   0  0  0  0  0  0  0  0  0  0  0  0
    6.3080    5.4740   19.4330 C   0  0  0  0  0  0  0  0  0  0  0  0
    7.1920    5.6600   18.3800 C   0  0  0  0  0  0  0  0  0  0  0  0
    6.9550    5.0840   17.1350 C   0  0  0  0  0  0  0  0  0  0  0  0
    8.2880    6.4080   18.5610 F   0  0  0  0  0  0  0  0  0  0  0  0
    4.4790    4.5540   20.0700 H   0  0  0  0  0  0  0  0  0  0  0  0
    6.5120    5.9300   20.3960 H   0  0  0  0  0  0  0  0  0  0  0  0
    7.6730    5.2670   16.3380 H   0  0  0  0  0  0  0  0  0  0  0  0
    5.6070    3.7140   15.5430 C   0  0  0  0  0  0  0  0  0  0  0  0
    6.3390    4.1250   14.8420 H   0  0  0  0  0  0  0  0  0  0  0  0
    5.7280    2.6240   15.5460 H   0  0  0  0  0  0  0  0  0  0  0  0
    4.5930    3.9090   15.1820 H   0  0  0  0  0  0  0  0  0  0  0  0
    3.4090    3.1620   17.8160 S   0  0  0  0  0  0  0  0  0  0  0  0
    2.6250    3.7070   16.7300 O   0  0  0  0  0  0  0  0  0  0  0  0
    3.7600    1.7560   17.8240 O   0  0  0  0  0  0  0  0  0  0  0  0
    2.6010    3.4330   19.2430 N   0  0  0  0  0  0  0  0  0  0  0  0
    1.3340    2.9740   19.5260 C   0  0  0  0  0  0  0  0  0  0  0  0
    0.6300    2.3420   18.7580 O   0  0  0  0  0  0  0  0  0  0  0  0
    0.9180    3.3050   20.7690 N   0  0  0  0  0  0  0  0  0  0  0  0
    3.0880    4.0620   19.8660 H   0  0  0  0  0  0  0  0  0  0  0  0
    0.0550    2.8690   21.0670 H   0  0  0  0  0  0  0  0  0  0  0  0
    1.5760    3.5750   21.4820 H   0  0  0  0  0  0  0  0  0  0  0  0
  1  6  2  0  0  0  0
  1  2  1  0  0  0  0
  2  3  2  0  0  0  0
  3  4  1  0  0  0  0
  3  8  1  0  0  0  0
  4  9  1  0  0  0  0
  5  7  1  0  0  0  0
  5  4  2  0  0  0  0
  6  5  1  0  0  0  0
 10  6  1  0  0  0  0
 11 13  1  0  0  0  0
 11  1  1  0  0  0  0
 12 11  1  0  0  0  0
 14 11  1  0  0  0  0
 15 17  2  0  0  0  0
 15  2  1  0  0  0  0
 15 18  1  0  0  0  0
 16 15  2  0  0  0  0
 18 19  1  0  0  0  0
 18 22  1  0  0  0  0
 19 21  1  0  0  0  0
 20 19  2  0  0  0  0
 21 23  1  0  0  0  0
 21 24  1  0  0  0  0
M  END
>  <MODEL>
9

>  <REMARK>
 VINA RESULT:    -6.296      3.916      5.537
 INTER + INTRA:          -7.089
 INTER:                  -7.000
 INTRA:                  -0.089
 UNBOUND:                 0.127
  Name = 
  3 active torsions:
  status: ('A' for Active; 'I' for Inactive)
    1  A    between atoms: C_1  and  C_2
    2  A    between atoms: C_3  and  S_9
    3  A    between atoms: S_9  and  N_12
                            x       y       z     vdW  Elec       q    Type
                         _______ _______ _______ _____ _____    ______ ____

>  <TORSDO>
F 3

$$$$
=
 OpenBabel07192307433D

 24 24  0  0  0  0  0  0  0  0999 V2000
    1.6550    4.6570   20.2950 C   0  0  0  0  0  0  0  0  0  0  0  0
    2.0280    4.4130   18.9570 C   0  0  0  0  0  0  0  0  0  0  0  0
    2.3890    5.4760   18.1100 C   0  0  0  0  0  0  0  0  0  0  0  0
    2.3760    6.7870   18.5830 C   0  0  0  0  0  0  0  0  0  0  0  0
    2.0150    7.0310   19.9000 C   0  0  0  0  0  0  0  0  0  0  0  0
    1.6630    5.9880   20.7520 C   0  0  0  0  0  0  0  0  0  0  0  0
    2.0070    8.2880   20.3610 F   0  0  0  0  0  0  0  0  0  0  0  0
    2.6680    5.2920   17.0740 H   0  0  0  0  0  0  0  0  0  0  0  0
    2.6450    7.6140   17.9340 H   0  0  0  0  0  0  0  0  0  0  0  0
    1.3960    6.2300   21.7780 H   0  0  0  0  0  0  0  0  0  0  0  0
    1.2870    3.5760   21.2720 C   0  0  0  0  0  0  0  0  0  0  0  0
    1.0240    2.6570   20.7410 H   0  0  0  0  0  0  0  0  0  0  0  0
    2.1260    3.3430   21.9390 H   0  0  0  0  0  0  0  0  0  0  0  0
    0.4600    3.8880   21.9150 H   0  0  0  0  0  0  0  0  0  0  0  0
    2.1090    2.7620   18.2770 S   0  0  0  0  0  0  0  0  0  0  0  0
    0.8260    2.1140   18.4400 O   0  0  0  0  0  0  0  0  0  0  0  0
    2.7160    2.8490   16.9650 O   0  0  0  0  0  0  0  0  0  0  0  0
    3.2210    1.9860   19.2380 N   0  0  0  0  0  0  0  0  0  0  0  0
    4.4810    2.4640   19.5210 C   0  0  0  0  0  0  0  0  0  0  0  0
    4.9560    3.4950   19.0780 O   0  0  0  0  0  0  0  0  0  0  0  0
    5.1770    1.6580   20.3550 N   0  0  0  0  0  0  0  0  0  0  0  0
    2.9270    1.0640   19.5280 H   0  0  0  0  0  0  0  0  0  0  0  0
    6.0490    2.0390   20.6980 H   0  0  0  0  0  0  0  0  0  0  0  0
    4.7080    0.9730   20.9250 H   0  0  0  0  0  0  0  0  0  0  0  0
  1  6  1  0  0  0  0
  1 11  1  0  0  0  0
  2  1  2  0  0  0  0
  3  4  2  0  0  0  0
  3  2  1  0  0  0  0
  4  5  1  0  0  0  0
  5  7  1  0  0  0  0
  5  6  2  0  0  0  0
  6 10  1  0  0  0  0
  8  3  1  0  0  0  0
  9  4  1  0  0  0  0
 11 14  1  0  0  0  0
 11 13  1  0  0  0  0
 12 11  1  0  0  0  0
 15 16  2  0  0  0  0
 15  2  1  0  0  0  0
 15 18  1  0  0  0  0
 17 15  2  0  0  0  0
 18 19  1  0  0  0  0
 18 22  1  0  0  0  0
 19 21  1  0  0  0  0
 20 19  2  0  0  0  0
 21 23  1  0  0  0  0
 21 24  1  0  0  0  0
M  END
>  <MODEL>
10

>  <REMARK>
 VINA RESULT:    -6.117      3.385      4.239
 INTER + INTRA:          -6.884
 INTER:                  -7.169
 INTRA:                   0.285
 UNBOUND:                 0.127
  Name = 
  3 active torsions:
  status: ('A' for Active; 'I' for Inactive)
    1  A    between atoms: C_1  and  C_2
    2  A    between atoms: C_3  and  S_9
    3  A    between atoms: S_9  and  N_12
                            x       y       z     vdW  Elec       q    Type
                         _______ _______ _______ _____ _____    ______ ____

>  <TORSDO>
F 3

$$$$
=
 OpenBabel07192307433D

 24 24  0  0  0  0  0  0  0  0999 V2000
    3.0790    5.7480   19.4300 C   0  0  0  0  0  0  0  0  0  0  0  0
    3.9880    5.7410   18.3520 C   0  0  0  0  0  0  0  0  0  0  0  0
    4.0540    6.8310   17.4660 C   0  0  0  0  0  0  0  0  0  0  0  0
    3.2160    7.9310   17.6400 C   0  0  0  0  0  0  0  0  0  0  0  0
    2.3250    7.9440   18.7030 C   0  0  0  0  0  0  0  0  0  0  0  0
    2.2530    6.8760   19.5930 C   0  0  0  0  0  0  0  0  0  0  0  0
    1.5220    9.0020   18.8790 F   0  0  0  0  0  0  0  0  0  0  0  0
    4.7480    6.8240   16.6270 H   0  0  0  0  0  0  0  0  0  0  0  0
    3.2550    8.7730   16.9570 H   0  0  0  0  0  0  0  0  0  0  0  0
    1.5440    6.9380   20.4150 H   0  0  0  0  0  0  0  0  0  0  0  0
    2.9680    4.6390   20.4380 C   0  0  0  0  0  0  0  0  0  0  0  0
    2.0660    4.7630   21.0430 H   0  0  0  0  0  0  0  0  0  0  0  0
    2.9050    3.6620   19.9460 H   0  0  0  0  0  0  0  0  0  0  0  0
    3.8510    4.6010   21.0840 H   0  0  0  0  0  0  0  0  0  0  0  0
    5.1250    4.3910   18.0740 S   0  0  0  0  0  0  0  0  0  0  0  0
    4.4370    3.1350   18.2820 O   0  0  0  0  0  0  0  0  0  0  0  0
    5.8180    4.6400   16.8260 O   0  0  0  0  0  0  0  0  0  0  0  0
    6.2660    4.5740   19.2670 N   0  0  0  0  0  0  0  0  0  0  0  0
    7.2300    5.5580   19.2860 C   0  0  0  0  0  0  0  0  0  0  0  0
    7.3940    6.3960   18.4160 O   0  0  0  0  0  0  0  0  0  0  0  0
    8.0150    5.5070   20.3860 N   0  0  0  0  0  0  0  0  0  0  0  0
    6.2580    3.8290   19.9490 H   0  0  0  0  0  0  0  0  0  0  0  0
    8.6420    6.2920   20.5070 H   0  0  0  0  0  0  0  0  0  0  0  0
    7.7200    5.0120   21.2110 H   0  0  0  0  0  0  0  0  0  0  0  0
  1  6  1  0  0  0  0
  1 11  1  0  0  0  0
  2  1  2  0  0  0  0
  3  4  2  0  0  0  0
  3  2  1  0  0  0  0
  4  5  1  0  0  0  0
  5  7  1  0  0  0  0
  5  6  2  0  0  0  0
  6 10  1  0  0  0  0
  8  3  1  0  0  0  0
  9  4  1  0  0  0  0
 11 12  1  0  0  0  0
 11 14  1  0  0  0  0
 13 11  1  0  0  0  0
 15 16  2  0  0  0  0
 15  2  1  0  0  0  0
 15 18  1  0  0  0  0
 17 15  2  0  0  0  0
 18 19  1  0  0  0  0
 18 22  1  0  0  0  0
 19 21  1  0  0  0  0
 20 19  2  0  0  0  0
 21 23  1  0  0  0  0
 21 24  1  0  0  0  0
M  END
>  <MODEL>
11

>  <REMARK>
 VINA RESULT:    -6.043      2.491      3.175
 INTER + INTRA:          -6.799
 INTER:                  -7.097
 INTRA:                   0.298
 UNBOUND:                 0.127
  Name = 
  3 active torsions:
  status: ('A' for Active; 'I' for Inactive)
    1  A    between atoms: C_1  and  C_2
    2  A    between atoms: C_3  and  S_9
    3  A    between atoms: S_9  and  N_12
                            x       y       z     vdW  Elec       q    Type
                         _______ _______ _______ _____ _____    ______ ____

>  <TORSDO>
F 3

$$$$
=
 OpenBabel07192307433D

 24 24  0  0  0  0  0  0  0  0999 V2000
    4.7560    6.7250   17.6190 C   0  0  0  0  0  0  0  0  0  0  0  0
    4.9330    5.3740   17.9840 C   0  0  0  0  0  0  0  0  0  0  0  0
    6.2200    4.8090   18.0290 C   0  0  0  0  0  0  0  0  0  0  0  0
    7.3370    5.5780   17.7070 C   0  0  0  0  0  0  0  0  0  0  0  0
    7.1670    6.9090   17.3530 C   0  0  0  0  0  0  0  0  0  0  0  0
    5.9000    7.4840   17.3110 C   0  0  0  0  0  0  0  0  0  0  0  0
    8.2380    7.6530   17.0500 F   0  0  0  0  0  0  0  0  0  0  0  0
    6.3600    3.7650   18.3010 H   0  0  0  0  0  0  0  0  0  0  0  0
    8.3330    5.1490   17.7320 H   0  0  0  0  0  0  0  0  0  0  0  0
    5.8200    8.5330   17.0360 H   0  0  0  0  0  0  0  0  0  0  0  0
    3.4190    7.4110   17.5770 C   0  0  0  0  0  0  0  0  0  0  0  0
    3.5350    8.4820   17.7630 H   0  0  0  0  0  0  0  0  0  0  0  0
    2.9450    7.2950   16.5950 H   0  0  0  0  0  0  0  0  0  0  0  0
    2.7280    6.9770   18.3050 H   0  0  0  0  0  0  0  0  0  0  0  0
    3.5630    4.3250   18.4480 S   0  0  0  0  0  0  0  0  0  0  0  0
    3.1630    4.6330   19.8040 O   0  0  0  0  0  0  0  0  0  0  0  0
    2.5880    4.3650   17.3770 O   0  0  0  0  0  0  0  0  0  0  0  0
    4.2030    2.7920   18.4190 N   0  0  0  0  0  0  0  0  0  0  0  0
    3.4860    1.6380   18.6470 C   0  0  0  0  0  0  0  0  0  0  0  0
    2.3020    1.5940   18.9330 O   0  0  0  0  0  0  0  0  0  0  0  0
    4.2350    0.5190   18.5330 N   0  0  0  0  0  0  0  0  0  0  0  0
    5.2070    2.7780   18.3140 H   0  0  0  0  0  0  0  0  0  0  0  0
    3.7200   -0.3510   18.5530 H   0  0  0  0  0  0  0  0  0  0  0  0
    5.1140    0.5310   18.0410 H   0  0  0  0  0  0  0  0  0  0  0  0
  1  2  1  0  0  0  0
  2  3  2  0  0  0  0
  2 15  1  0  0  0  0
  3  8  1  0  0  0  0
  4  9  1  0  0  0  0
  4  3  1  0  0  0  0
  5  4  2  0  0  0  0
  6  5  1  0  0  0  0
  6  1  2  0  0  0  0
  7  5  1  0  0  0  0
 10  6  1  0  0  0  0
 11  1  1  0  0  0  0
 11 12  1  0  0  0  0
 11 14  1  0  0  0  0
 13 11  1  0  0  0  0
 15 16  2  0  0  0  0
 17 15  2  0  0  0  0
 18 15  1  0  0  0  0
 18 19  1  0  0  0  0
 19 20  2  0  0  0  0
 21 23  1  0  0  0  0
 21 19  1  0  0  0  0
 22 18  1  0  0  0  0
 24 21  1  0  0  0  0
M  END
>  <MODEL>
12

>  <REMARK>
 VINA RESULT:    -6.022      3.837      5.230
 INTER + INTRA:          -6.775
 INTER:                  -6.710
 INTRA:                  -0.065
 UNBOUND:                 0.127
  Name = 
  3 active torsions:
  status: ('A' for Active; 'I' for Inactive)
    1  A    between atoms: C_1  and  C_2
    2  A    between atoms: C_3  and  S_9
    3  A    between atoms: S_9  and  N_12
                            x       y       z     vdW  Elec       q    Type
                         _______ _______ _______ _____ _____    ______ ____

>  <TORSDO>
F 3

$$$$
=
 OpenBabel07192307433D

 24 24  0  0  0  0  0  0  0  0999 V2000
    2.6090    5.3200   20.0050 C   0  0  0  0  0  0  0  0  0  0  0  0
    3.6940    4.5970   19.4670 C   0  0  0  0  0  0  0  0  0  0  0  0
    3.8220    3.2170   19.7080 C   0  0  0  0  0  0  0  0  0  0  0  0
    2.8810    2.5490   20.4880 C   0  0  0  0  0  0  0  0  0  0  0  0
    1.8100    3.2560   21.0150 C   0  0  0  0  0  0  0  0  0  0  0  0
    1.6650    4.6200   20.7780 C   0  0  0  0  0  0  0  0  0  0  0  0
    0.8990    2.6170   21.7590 F   0  0  0  0  0  0  0  0  0  0  0  0
    4.6630    2.6580   19.3020 H   0  0  0  0  0  0  0  0  0  0  0  0
    2.9760    1.4860   20.6860 H   0  0  0  0  0  0  0  0  0  0  0  0
    0.8030    5.1280   21.2060 H   0  0  0  0  0  0  0  0  0  0  0  0
    2.3820    6.7870   19.7690 C   0  0  0  0  0  0  0  0  0  0  0  0
    1.3670    7.0680   20.0610 H   0  0  0  0  0  0  0  0  0  0  0  0
    3.0770    7.3950   20.3600 H   0  0  0  0  0  0  0  0  0  0  0  0
    2.5580    7.0510   18.7210 H   0  0  0  0  0  0  0  0  0  0  0  0
    4.9270    5.3640   18.4250 S   0  0  0  0  0  0  0  0  0  0  0  0
    4.3380    6.4930   17.7390 O   0  0  0  0  0  0  0  0  0  0  0  0
    6.1290    5.5400   19.2130 O   0  0  0  0  0  0  0  0  0  0  0  0
    5.2900    4.1920   17.3040 N   0  0  0  0  0  0  0  0  0  0  0  0
    6.1620    4.3590   16.2500 C   0  0  0  0  0  0  0  0  0  0  0  0
    6.7510    5.3920   15.9840 O   0  0  0  0  0  0  0  0  0  0  0  0
    6.3070    3.2410   15.5040 N   0  0  0  0  0  0  0  0  0  0  0  0
    4.7320    3.3560   17.4020 H   0  0  0  0  0  0  0  0  0  0  0  0
    7.0410    3.2770   14.8080 H   0  0  0  0  0  0  0  0  0  0  0  0
    6.0500    2.3370   15.8670 H   0  0  0  0  0  0  0  0  0  0  0  0
  1  6  1  0  0  0  0
  2  3  1  0  0  0  0
  2  1  2  0  0  0  0
  3  4  2  0  0  0  0
  4  9  1  0  0  0  0
  4  5  1  0  0  0  0
  5  7  1  0  0  0  0
  6  5  2  0  0  0  0
  6 10  1  0  0  0  0
  8  3  1  0  0  0  0
 11  1  1  0  0  0  0
 11 12  1  0  0  0  0
 11 13  1  0  0  0  0
 14 11  1  0  0  0  0
 15 17  2  0  0  0  0
 15  2  1  0  0  0  0
 16 15  2  0  0  0  0
 18 22  1  0  0  0  0
 18 15  1  0  0  0  0
 19 18  1  0  0  0  0
 20 19  2  0  0  0  0
 21 24  1  0  0  0  0
 21 19  1  0  0  0  0
 23 21  1  0  0  0  0
M  END
>  <MODEL>
13

>  <REMARK>
 VINA RESULT:    -6.013      2.304      2.730
 INTER + INTRA:          -6.765
 INTER:                  -7.073
 INTRA:                   0.308
 UNBOUND:                 0.127
  Name = 
  3 active torsions:
  status: ('A' for Active; 'I' for Inactive)
    1  A    between atoms: C_1  and  C_2
    2  A    between atoms: C_3  and  S_9
    3  A    between atoms: S_9  and  N_12
                            x       y       z     vdW  Elec       q    Type
                         _______ _______ _______ _____ _____    ______ ____

>  <TORSDO>
F 3

$$$$
=
 OpenBabel07192307433D

 24 24  0  0  0  0  0  0  0  0999 V2000
    4.4870    6.0170   17.5080 C   0  0  0  0  0  0  0  0  0  0  0  0
    5.5360    5.1910   17.9640 C   0  0  0  0  0  0  0  0  0  0  0  0
    5.2580    4.0090   18.6730 C   0  0  0  0  0  0  0  0  0  0  0  0
    3.9400    3.6430   18.9400 C   0  0  0  0  0  0  0  0  0  0  0  0
    2.9050    4.4490   18.4880 C   0  0  0  0  0  0  0  0  0  0  0  0
    3.1650    5.6180   17.7780 C   0  0  0  0  0  0  0  0  0  0  0  0
    1.6370    4.0980   18.7350 F   0  0  0  0  0  0  0  0  0  0  0  0
    6.0650    3.3750   19.0350 H   0  0  0  0  0  0  0  0  0  0  0  0
    3.7160    2.7360   19.4930 H   0  0  0  0  0  0  0  0  0  0  0  0
    2.3200    6.2120   17.4370 H   0  0  0  0  0  0  0  0  0  0  0  0
    4.6980    7.2770   16.7170 C   0  0  0  0  0  0  0  0  0  0  0  0
    3.8140    7.5020   16.1150 H   0  0  0  0  0  0  0  0  0  0  0  0
    4.8760    8.1340   17.3770 H   0  0  0  0  0  0  0  0  0  0  0  0
    5.5800    7.1970   16.0730 H   0  0  0  0  0  0  0  0  0  0  0  0
    7.2530    5.5640   17.6360 S   0  0  0  0  0  0  0  0  0  0  0  0
    7.5900    6.8350   18.2380 O   0  0  0  0  0  0  0  0  0  0  0  0
    8.0330    4.3830   17.9480 O   0  0  0  0  0  0  0  0  0  0  0  0
    7.3200    5.7250   15.9840 N   0  0  0  0  0  0  0  0  0  0  0  0
    6.9500    4.7490   15.0840 C   0  0  0  0  0  0  0  0  0  0  0  0
    6.5600    3.6330   15.3820 O   0  0  0  0  0  0  0  0  0  0  0  0
    7.0690    5.1450   13.7970 N   0  0  0  0  0  0  0  0  0  0  0  0
    7.7560    6.5850   15.6820 H   0  0  0  0  0  0  0  0  0  0  0  0
    6.6770    4.5130   13.1120 H   0  0  0  0  0  0  0  0  0  0  0  0
    7.1210    6.1220   13.5570 H   0  0  0  0  0  0  0  0  0  0  0  0
  1  6  2  0  0  0  0
  1  2  1  0  0  0  0
  2  3  2  0  0  0  0
  3  4  1  0  0  0  0
  3  8  1  0  0  0  0
  4  9  1  0  0  0  0
  5  7  1  0  0  0  0
  5  4  2  0  0  0  0
  6  5  1  0  0  0  0
 10  6  1  0  0  0  0
 11 13  1  0  0  0  0
 11  1  1  0  0  0  0
 12 11  1  0  0  0  0
 14 11  1  0  0  0  0
 15 17  2  0  0  0  0
 15  2  1  0  0  0  0
 15 16  2  0  0  0  0
 18 15  1  0  0  0  0
 19 20  2  0  0  0  0
 19 18  1  0  0  0  0
 21 19  1  0  0  0  0
 22 18  1  0  0  0  0
 23 21  1  0  0  0  0
 24 21  1  0  0  0  0
M  END
>  <MODEL>
14

>  <REMARK>
 VINA RESULT:    -5.968      2.545      3.365
 INTER + INTRA:          -6.713
 INTER:                  -6.950
 INTRA:                   0.237
 UNBOUND:                 0.127
  Name = 
  3 active torsions:
  status: ('A' for Active; 'I' for Inactive)
    1  A    between atoms: C_1  and  C_2
    2  A    between atoms: C_3  and  S_9
    3  A    between atoms: S_9  and  N_12
                            x       y       z     vdW  Elec       q    Type
                         _______ _______ _______ _____ _____    ______ ____

>  <TORSDO>
F 3

$$$$
=
 OpenBabel07192307433D

 24 24  0  0  0  0  0  0  0  0999 V2000
    4.2100    6.0860   17.7220 C   0  0  0  0  0  0  0  0  0  0  0  0
    4.1840    4.6770   17.6630 C   0  0  0  0  0  0  0  0  0  0  0  0
    5.3130    3.9580   17.2320 C   0  0  0  0  0  0  0  0  0  0  0  0
    6.4720    4.6320   16.8510 C   0  0  0  0  0  0  0  0  0  0  0  0
    6.5040    6.0180   16.9130 C   0  0  0  0  0  0  0  0  0  0  0  0
    5.3960    6.7420   17.3450 C   0  0  0  0  0  0  0  0  0  0  0  0
    7.6170    6.6700   16.5550 F   0  0  0  0  0  0  0  0  0  0  0  0
    5.2930    2.8710   17.1760 H   0  0  0  0  0  0  0  0  0  0  0  0
    7.3460    4.0860   16.5100 H   0  0  0  0  0  0  0  0  0  0  0  0
    5.4740    7.8260   17.3830 H   0  0  0  0  0  0  0  0  0  0  0  0
    3.0590    6.9250   18.2000 C   0  0  0  0  0  0  0  0  0  0  0  0
    2.7500    6.6120   19.2010 H   0  0  0  0  0  0  0  0  0  0  0  0
    3.3360    7.9840   18.2550 H   0  0  0  0  0  0  0  0  0  0  0  0
    2.2120    6.8650   17.5100 H   0  0  0  0  0  0  0  0  0  0  0  0
    2.7550    3.7290   18.1670 S   0  0  0  0  0  0  0  0  0  0  0  0
    1.5530    4.4110   17.7370 O   0  0  0  0  0  0  0  0  0  0  0  0
    2.9800    2.3480   17.7910 O   0  0  0  0  0  0  0  0  0  0  0  0
    2.8180    3.7610   19.8270 N   0  0  0  0  0  0  0  0  0  0  0  0
    1.9020    3.1540   20.6580 C   0  0  0  0  0  0  0  0  0  0  0  0
    0.9120    2.5470   20.2870 O   0  0  0  0  0  0  0  0  0  0  0  0
    2.1990    3.3010   21.9690 N   0  0  0  0  0  0  0  0  0  0  0  0
    3.5470    4.3580   20.1900 H   0  0  0  0  0  0  0  0  0  0  0  0
    1.6340    2.7540   22.6050 H   0  0  0  0  0  0  0  0  0  0  0  0
    3.1290    3.5510   22.2650 H   0  0  0  0  0  0  0  0  0  0  0  0
  1 11  1  0  0  0  0
  2  1  1  0  0  0  0
  2 15  1  0  0  0  0
  3  2  2  0  0  0  0
  4  5  2  0  0  0  0
  4  3  1  0  0  0  0
  5  6  1  0  0  0  0
  6 10  1  0  0  0  0
  6  1  2  0  0  0  0
  7  5  1  0  0  0  0
  8  3  1  0  0  0  0
  9  4  1  0  0  0  0
 11 13  1  0  0  0  0
 11 12  1  0  0  0  0
 14 11  1  0  0  0  0
 15 18  1  0  0  0  0
 16 15  2  0  0  0  0
 17 15  2  0  0  0  0
 18 22  1  0  0  0  0
 18 19  1  0  0  0  0
 19 21  1  0  0  0  0
 20 19  2  0  0  0  0
 21 24  1  0  0  0  0
 21 23  1  0  0  0  0
M  END
>  <MODEL>
15

>  <REMARK>
 VINA RESULT:    -5.918      3.982      5.060
 INTER + INTRA:          -6.655
 INTER:                  -6.812
 INTRA:                   0.157
 UNBOUND:                 0.127
  Name = 
  3 active torsions:
  status: ('A' for Active; 'I' for Inactive)
    1  A    between atoms: C_1  and  C_2
    2  A    between atoms: C_3  and  S_9
    3  A    between atoms: S_9  and  N_12
                            x       y       z     vdW  Elec       q    Type
                         _______ _______ _______ _____ _____    ______ ____

>  <TORSDO>
F 3

$$$$
=
 OpenBabel07192307433D

 24 24  0  0  0  0  0  0  0  0999 V2000
    3.2980    4.9530   19.2620 C   0  0  0  0  0  0  0  0  0  0  0  0
    3.6040    5.7790   18.1610 C   0  0  0  0  0  0  0  0  0  0  0  0
    3.0980    7.0890   18.0890 C   0  0  0  0  0  0  0  0  0  0  0  0
    2.2820    7.5850   19.1040 C   0  0  0  0  0  0  0  0  0  0  0  0
    1.9840    6.7770   20.1910 C   0  0  0  0  0  0  0  0  0  0  0  0
    2.4840    5.4810   20.2800 C   0  0  0  0  0  0  0  0  0  0  0  0
    1.2060    7.2510   21.1730 F   0  0  0  0  0  0  0  0  0  0  0  0
    3.3240    7.7260   17.2350 H   0  0  0  0  0  0  0  0  0  0  0  0
    1.8810    8.5920   19.0530 H   0  0  0  0  0  0  0  0  0  0  0  0
    2.2280    4.8900   21.1570 H   0  0  0  0  0  0  0  0  0  0  0  0
    3.8240    3.5550   19.4300 C   0  0  0  0  0  0  0  0  0  0  0  0
    3.1000    2.8280   19.0510 H   0  0  0  0  0  0  0  0  0  0  0  0
    4.7570    3.4130   18.8730 H   0  0  0  0  0  0  0  0  0  0  0  0
    4.0560    3.3420   20.4780 H   0  0  0  0  0  0  0  0  0  0  0  0
    4.6710    5.2400   16.8330 S   0  0  0  0  0  0  0  0  0  0  0  0
    4.1210    4.0450   16.2320 O   0  0  0  0  0  0  0  0  0  0  0  0
    4.9760    6.3920   16.0090 O   0  0  0  0  0  0  0  0  0  0  0  0
    6.0930    4.8440   17.5960 N   0  0  0  0  0  0  0  0  0  0  0  0
    7.2420    4.4370   16.9540 C   0  0  0  0  0  0  0  0  0  0  0  0
    7.3540    4.2830   15.7500 O   0  0  0  0  0  0  0  0  0  0  0  0
    8.2690    4.2070   17.8030 N   0  0  0  0  0  0  0  0  0  0  0  0
    6.0170    4.8300   18.6040 H   0  0  0  0  0  0  0  0  0  0  0  0
    9.1650    4.0440   17.3640 H   0  0  0  0  0  0  0  0  0  0  0  0
    8.2660    4.5870   18.7350 H   0  0  0  0  0  0  0  0  0  0  0  0
  1 11  1  0  0  0  0
  1  6  1  0  0  0  0
  2  1  2  0  0  0  0
  3  2  1  0  0  0  0
  3  4  2  0  0  0  0
  4  5  1  0  0  0  0
  5  6  2  0  0  0  0
  5  7  1  0  0  0  0
  6 10  1  0  0  0  0
  8  3  1  0  0  0  0
  9  4  1  0  0  0  0
 11 14  1  0  0  0  0
 12 11  1  0  0  0  0
 13 11  1  0  0  0  0
 15 18  1  0  0  0  0
 15  2  1  0  0  0  0
 16 15  2  0  0  0  0
 17 15  2  0  0  0  0
 18 22  1  0  0  0  0
 19 18  1  0  0  0  0
 19 21  1  0  0  0  0
 20 19  2  0  0  0  0
 21 24  1  0  0  0  0
 23 21  1  0  0  0  0
M  END
>  <MODEL>
16

>  <REMARK>
 VINA RESULT:    -5.917      2.505      3.192
 INTER + INTRA:          -6.655
 INTER:                  -6.782
 INTRA:                   0.128
 UNBOUND:                 0.127
  Name = 
  3 active torsions:
  status: ('A' for Active; 'I' for Inactive)
    1  A    between atoms: C_1  and  C_2
    2  A    between atoms: C_3  and  S_9
    3  A    between atoms: S_9  and  N_12
                            x       y       z     vdW  Elec       q    Type
                         _______ _______ _______ _____ _____    ______ ____

>  <TORSDO>
F 3

$$$$
=
 OpenBabel07192307433D

 24 24  0  0  0  0  0  0  0  0999 V2000
    6.1370    4.9100   17.8880 C   0  0  0  0  0  0  0  0  0  0  0  0
    4.9900    4.1600   17.5540 C   0  0  0  0  0  0  0  0  0  0  0  0
    4.7480    3.7810   16.2220 C   0  0  0  0  0  0  0  0  0  0  0  0
    5.6360    4.1490   15.2130 C   0  0  0  0  0  0  0  0  0  0  0  0
    6.7680    4.8820   15.5380 C   0  0  0  0  0  0  0  0  0  0  0  0
    7.0260    5.2570   16.8540 C   0  0  0  0  0  0  0  0  0  0  0  0
    7.6290    5.2320   14.5740 F   0  0  0  0  0  0  0  0  0  0  0  0
    3.8590    3.2100   15.9590 H   0  0  0  0  0  0  0  0  0  0  0  0
    5.4530    3.8680   14.1810 H   0  0  0  0  0  0  0  0  0  0  0  0
    7.9310    5.8240   17.0600 H   0  0  0  0  0  0  0  0  0  0  0  0
    6.4850    5.3260   19.2900 C   0  0  0  0  0  0  0  0  0  0  0  0
    5.7090    5.0000   19.9870 H   0  0  0  0  0  0  0  0  0  0  0  0
    7.4310    4.8760   19.6130 H   0  0  0  0  0  0  0  0  0  0  0  0
    6.6210    6.4090   19.3590 H   0  0  0  0  0  0  0  0  0  0  0  0
    3.8180    3.6130   18.7860 S   0  0  0  0  0  0  0  0  0  0  0  0
    2.7170    2.9390   18.1340 O   0  0  0  0  0  0  0  0  0  0  0  0
    4.5560    2.9450   19.8390 O   0  0  0  0  0  0  0  0  0  0  0  0
    3.2530    5.0250   19.4570 N   0  0  0  0  0  0  0  0  0  0  0  0
    2.3170    5.0940   20.4650 C   0  0  0  0  0  0  0  0  0  0  0  0
    1.7580    4.1360   20.9710 O   0  0  0  0  0  0  0  0  0  0  0  0
    2.0540    6.3620   20.8550 N   0  0  0  0  0  0  0  0  0  0  0  0
    3.5880    5.8540   18.9880 H   0  0  0  0  0  0  0  0  0  0  0  0
    1.4810    6.4500   21.6840 H   0  0  0  0  0  0  0  0  0  0  0  0
    2.6920    7.1120   20.6450 H   0  0  0  0  0  0  0  0  0  0  0  0
  1 11  1  0  0  0  0
  2  1  1  0  0  0  0
  2 15  1  0  0  0  0
  3  2  2  0  0  0  0
  4  5  2  0  0  0  0
  4  3  1  0  0  0  0
  5  6  1  0  0  0  0
  6 10  1  0  0  0  0
  6  1  2  0  0  0  0
  7  5  1  0  0  0  0
  8  3  1  0  0  0  0
  9  4  1  0  0  0  0
 11 14  1  0  0  0  0
 11 13  1  0  0  0  0
 11 12  1  0  0  0  0
 15 18  1  0  0  0  0
 15 17  2  0  0  0  0
 16 15  2  0  0  0  0
 18 19  1  0  0  0  0
 19 21  1  0  0  0  0
 19 20  2  0  0  0  0
 21 23  1  0  0  0  0
 22 18  1  0  0  0  0
 24 21  1  0  0  0  0
M  END
>  <MODEL>
17

>  <REMARK>
 VINA RESULT:    -5.886      3.850      4.945
 INTER + INTRA:          -6.619
 INTER:                  -6.793
 INTRA:                   0.173
 UNBOUND:                 0.127
  Name = 
  3 active torsions:
  status: ('A' for Active; 'I' for Inactive)
    1  A    between atoms: C_1  and  C_2
    2  A    between atoms: C_3  and  S_9
    3  A    between atoms: S_9  and  N_12
                            x       y       z     vdW  Elec       q    Type
                         _______ _______ _______ _____ _____    ______ ____

>  <TORSDO>
F 3

$$$$
=
 OpenBabel07192307433D

 24 24  0  0  0  0  0  0  0  0999 V2000
    4.0910    6.6340   17.4430 C   0  0  0  0  0  0  0  0  0  0  0  0
    4.1720    5.5170   18.3010 C   0  0  0  0  0  0  0  0  0  0  0  0
    3.3690    5.4430   19.4530 C   0  0  0  0  0  0  0  0  0  0  0  0
    2.4890    6.4770   19.7650 C   0  0  0  0  0  0  0  0  0  0  0  0
    2.4030    7.5750   18.9210 C   0  0  0  0  0  0  0  0  0  0  0  0
    3.1850    7.6580   17.7720 C   0  0  0  0  0  0  0  0  0  0  0  0
    1.5530    8.5680   19.2120 F   0  0  0  0  0  0  0  0  0  0  0  0
    3.4360    4.5870   20.1230 H   0  0  0  0  0  0  0  0  0  0  0  0
    1.8720    6.4320   20.6570 H   0  0  0  0  0  0  0  0  0  0  0  0
    3.0750    8.5350   17.1380 H   0  0  0  0  0  0  0  0  0  0  0  0
    4.8890    6.7750   16.1770 C   0  0  0  0  0  0  0  0  0  0  0  0
    5.3080    7.7820   16.1010 H   0  0  0  0  0  0  0  0  0  0  0  0
    5.7260    6.0670   16.1550 H   0  0  0  0  0  0  0  0  0  0  0  0
    4.2780    6.5550   15.2970 H   0  0  0  0  0  0  0  0  0  0  0  0
    5.2450    4.1300   17.9600 S   0  0  0  0  0  0  0  0  0  0  0  0
    4.6060    3.2550   17.0010 O   0  0  0  0  0  0  0  0  0  0  0  0
    6.5730    4.6460   17.6990 O   0  0  0  0  0  0  0  0  0  0  0  0
    5.3480    3.3350   19.4150 N   0  0  0  0  0  0  0  0  0  0  0  0
    4.5400    2.2860   19.7950 C   0  0  0  0  0  0  0  0  0  0  0  0
    3.6250    1.8290   19.1320 O   0  0  0  0  0  0  0  0  0  0  0  0
    4.8510    1.7940   21.0160 N   0  0  0  0  0  0  0  0  0  0  0  0
    6.0050    3.7560   20.0570 H   0  0  0  0  0  0  0  0  0  0  0  0
    4.3770    0.9380   21.2710 H   0  0  0  0  0  0  0  0  0  0  0  0
    5.7490    1.9750   21.4340 H   0  0  0  0  0  0  0  0  0  0  0  0
  1  6  2  0  0  0  0
  1  2  1  0  0  0  0
  2  3  2  0  0  0  0
  3  4  1  0  0  0  0
  3  8  1  0  0  0  0
  4  9  1  0  0  0  0
  5  7  1  0  0  0  0
  5  4  2  0  0  0  0
  6  5  1  0  0  0  0
 10  6  1  0  0  0  0
 11  1  1  0  0  0  0
 12 11  1  0  0  0  0
 13 11  1  0  0  0  0
 14 11  1  0  0  0  0
 15  2  1  0  0  0  0
 15 18  1  0  0  0  0
 16 15  2  0  0  0  0
 17 15  2  0  0  0  0
 18 19  1  0  0  0  0
 18 22  1  0  0  0  0
 19 21  1  0  0  0  0
 20 19  2  0  0  0  0
 21 23  1  0  0  0  0
 21 24  1  0  0  0  0
M  END
>  <MODEL>
18

>  <REMARK>
 VINA RESULT:    -5.883      2.815      3.944
 INTER + INTRA:          -6.615
 INTER:                  -7.031
 INTRA:                   0.415
 UNBOUND:                 0.127
  Name = 
  3 active torsions:
  status: ('A' for Active; 'I' for Inactive)
    1  A    between atoms: C_1  and  C_2
    2  A    between atoms: C_3  and  S_9
    3  A    between atoms: S_9  and  N_12
                            x       y       z     vdW  Elec       q    Type
                         _______ _______ _______ _____ _____    ______ ____

>  <TORSDO>
F 3

$$$$
=
 OpenBabel07192307433D

 24 24  0  0  0  0  0  0  0  0999 V2000
    3.9670    6.1240   18.1550 C   0  0  0  0  0  0  0  0  0  0  0  0
    4.9630    5.1660   17.8730 C   0  0  0  0  0  0  0  0  0  0  0  0
    5.0460    3.9810   18.6260 C   0  0  0  0  0  0  0  0  0  0  0  0
    4.1480    3.7420   19.6640 C   0  0  0  0  0  0  0  0  0  0  0  0
    3.1640    4.6800   19.9410 C   0  0  0  0  0  0  0  0  0  0  0  0
    3.0640    5.8540   19.1990 C   0  0  0  0  0  0  0  0  0  0  0  0
    2.2940    4.4530   20.9330 F   0  0  0  0  0  0  0  0  0  0  0  0
    5.8200    3.2430   18.4180 H   0  0  0  0  0  0  0  0  0  0  0  0
    4.2100    2.8340   20.2550 H   0  0  0  0  0  0  0  0  0  0  0  0
    2.2700    6.5540   19.4490 H   0  0  0  0  0  0  0  0  0  0  0  0
    3.7910    7.3990   17.3780 C   0  0  0  0  0  0  0  0  0  0  0  0
    3.4440    7.1820   16.3640 H   0  0  0  0  0  0  0  0  0  0  0  0
    3.0460    8.0500   17.8500 H   0  0  0  0  0  0  0  0  0  0  0  0
    4.7210    7.9730   17.3420 H   0  0  0  0  0  0  0  0  0  0  0  0
    6.1320    5.3710   16.5380 S   0  0  0  0  0  0  0  0  0  0  0  0
    7.2030    4.4100   16.6870 O   0  0  0  0  0  0  0  0  0  0  0  0
    5.3850    5.4380   15.2980 O   0  0  0  0  0  0  0  0  0  0  0  0
    6.7500    6.8950   16.7750 N   0  0  0  0  0  0  0  0  0  0  0  0
    7.5940    7.2470   17.8050 C   0  0  0  0  0  0  0  0  0  0  0  0
    7.9680    6.5000   18.6920 O   0  0  0  0  0  0  0  0  0  0  0  0
    7.9790    8.5420   17.7530 N   0  0  0  0  0  0  0  0  0  0  0  0
    6.3700    7.5850   16.1430 H   0  0  0  0  0  0  0  0  0  0  0  0
    8.7060    8.8040   18.4050 H   0  0  0  0  0  0  0  0  0  0  0  0
    7.9020    9.0720   16.9000 H   0  0  0  0  0  0  0  0  0  0  0  0
  1  6  1  0  0  0  0
  2  1  2  0  0  0  0
  2  3  1  0  0  0  0
  3  4  2  0  0  0  0
  4  5  1  0  0  0  0
  4  9  1  0  0  0  0
  5  7  1  0  0  0  0
  6 10  1  0  0  0  0
  6  5  2  0  0  0  0
  8  3  1  0  0  0  0
 11 13  1  0  0  0  0
 11  1  1  0  0  0  0
 12 11  1  0  0  0  0
 14 11  1  0  0  0  0
 15 16  2  0  0  0  0
 15 18  1  0  0  0  0
 15  2  1  0  0  0  0
 17 15  2  0  0  0  0
 18 19  1  0  0  0  0
 19 20  2  0  0  0  0
 21 19  1  0  0  0  0
 21 23  1  0  0  0  0
 22 18  1  0  0  0  0
 24 21  1  0  0  0  0
M  END
>  <MODEL>
19

>  <REMARK>
 VINA RESULT:    -5.815      2.339      2.469
 INTER + INTRA:          -6.537
 INTER:                  -6.804
 INTRA:                   0.267
 UNBOUND:                 0.127
  Name = 
  3 active torsions:
  status: ('A' for Active; 'I' for Inactive)
    1  A    between atoms: C_1  and  C_2
    2  A    between atoms: C_3  and  S_9
    3  A    between atoms: S_9  and  N_12
                            x       y       z     vdW  Elec       q    Type
                         _______ _______ _______ _____ _____    ______ ____

>  <TORSDO>
F 3

$$$$
=
 OpenBabel07192307433D

 24 24  0  0  0  0  0  0  0  0999 V2000
    2.6720    5.5170   19.6800 C   0  0  0  0  0  0  0  0  0  0  0  0
    3.5290    5.2430   18.5930 C   0  0  0  0  0  0  0  0  0  0  0  0
    3.8030    6.2320   17.6320 C   0  0  0  0  0  0  0  0  0  0  0  0
    3.2250    7.4960   17.7390 C   0  0  0  0  0  0  0  0  0  0  0  0
    2.3860    7.7710   18.8090 C   0  0  0  0  0  0  0  0  0  0  0  0
    2.1110    6.8040   19.7720 C   0  0  0  0  0  0  0  0  0  0  0  0
    1.8330    8.9850   18.9200 F   0  0  0  0  0  0  0  0  0  0  0  0
    4.4570    6.0210   16.7870 H   0  0  0  0  0  0  0  0  0  0  0  0
    3.4250    8.2630   16.9980 H   0  0  0  0  0  0  0  0  0  0  0  0
    1.4540    7.0710   20.5970 H   0  0  0  0  0  0  0  0  0  0  0  0
    2.3540    4.5270   20.7640 C   0  0  0  0  0  0  0  0  0  0  0  0
    1.7730    3.6930   20.3600 H   0  0  0  0  0  0  0  0  0  0  0  0
    3.2690    4.1110   21.2020 H   0  0  0  0  0  0  0  0  0  0  0  0
    1.8080    5.0010   21.5860 H   0  0  0  0  0  0  0  0  0  0  0  0
    4.3430    3.6640   18.3970 S   0  0  0  0  0  0  0  0  0  0  0  0
    4.9510    3.2800   19.6530 O   0  0  0  0  0  0  0  0  0  0  0  0
    3.4200    2.7660   17.7330 O   0  0  0  0  0  0  0  0  0  0  0  0
    5.5490    3.9680   17.2950 N   0  0  0  0  0  0  0  0  0  0  0  0
    6.7300    4.6150   17.5830 C   0  0  0  0  0  0  0  0  0  0  0  0
    7.0290    5.0770   18.6700 O   0  0  0  0  0  0  0  0  0  0  0  0
    7.5570    4.7050   16.5170 N   0  0  0  0  0  0  0  0  0  0  0  0
    5.2980    3.7200   16.3480 H   0  0  0  0  0  0  0  0  0  0  0  0
    8.4880    5.0450   16.7180 H   0  0  0  0  0  0  0  0  0  0  0  0
    7.4400    4.1030   15.7180 H   0  0  0  0  0  0  0  0  0  0  0  0
  1  6  1  0  0  0  0
  1 11  1  0  0  0  0
  2  1  2  0  0  0  0
  3  4  2  0  0  0  0
  3  2  1  0  0  0  0
  4  5  1  0  0  0  0
  5  7  1  0  0  0  0
  5  6  2  0  0  0  0
  6 10  1  0  0  0  0
  8  3  1  0  0  0  0
  9  4  1  0  0  0  0
 11 13  1  0  0  0  0
 11 14  1  0  0  0  0
 12 11  1  0  0  0  0
 15  2  1  0  0  0  0
 15 16  2  0  0  0  0
 17 15  2  0  0  0  0
 18 19  1  0  0  0  0
 18 15  1  0  0  0  0
 19 20  2  0  0  0  0
 21 23  1  0  0  0  0
 21 19  1  0  0  0  0
 22 18  1  0  0  0  0
 24 21  1  0  0  0  0
M  END
>  <MODEL>
20

>  <REMARK>
 VINA RESULT:    -5.807      2.898      3.553
 INTER + INTRA:          -6.529
 INTER:                  -6.827
 INTRA:                   0.299
 UNBOUND:                 0.127
  Name = 
  3 active torsions:
  status: ('A' for Active; 'I' for Inactive)
    1  A    between atoms: C_1  and  C_2
    2  A    between atoms: C_3  and  S_9
    3  A    between atoms: S_9  and  N_12
                            x       y       z     vdW  Elec       q    Type
                         _______ _______ _______ _____ _____    ______ ____

>  <TORSDO>
F 3

$$$$
=
 OpenBabel07192307433D

 24 24  0  0  0  0  0  0  0  0999 V2000
    4.2960    3.9000   17.2220 C   0  0  0  0  0  0  0  0  0  0  0  0
    3.7610    5.0920   17.7550 C   0  0  0  0  0  0  0  0  0  0  0  0
    4.2380    6.3430   17.3260 C   0  0  0  0  0  0  0  0  0  0  0  0
    5.2510    6.4200   16.3720 C   0  0  0  0  0  0  0  0  0  0  0  0
    5.7760    5.2510   15.8420 C   0  0  0  0  0  0  0  0  0  0  0  0
    5.3080    4.0050   16.2510 C   0  0  0  0  0  0  0  0  0  0  0  0
    6.7450    5.3190   14.9200 F   0  0  0  0  0  0  0  0  0  0  0  0
    3.8340    7.2650   17.7420 H   0  0  0  0  0  0  0  0  0  0  0  0
    5.6310    7.3810   16.0410 H   0  0  0  0  0  0  0  0  0  0  0  0
    5.7460    3.1170   15.7990 H   0  0  0  0  0  0  0  0  0  0  0  0
    3.8200    2.5270   17.6030 C   0  0  0  0  0  0  0  0  0  0  0  0
    3.1320    2.1380   16.8470 H   0  0  0  0  0  0  0  0  0  0  0  0
    4.6580    1.8240   17.6790 H   0  0  0  0  0  0  0  0  0  0  0  0
    3.3340    2.5330   18.5830 H   0  0  0  0  0  0  0  0  0  0  0  0
    2.4350    5.0890   18.9530 S   0  0  0  0  0  0  0  0  0  0  0  0
    2.2910    6.4150   19.5110 O   0  0  0  0  0  0  0  0  0  0  0  0
    1.2940    4.4250   18.3540 O   0  0  0  0  0  0  0  0  0  0  0  0
    2.9750    4.0670   20.1470 N   0  0  0  0  0  0  0  0  0  0  0  0
    2.1600    3.3510   20.9940 C   0  0  0  0  0  0  0  0  0  0  0  0
    0.9420    3.3990   21.0030 O   0  0  0  0  0  0  0  0  0  0  0  0
    2.8490    2.5680   21.8550 N   0  0  0  0  0  0  0  0  0  0  0  0
    3.9780    4.0880   20.2690 H   0  0  0  0  0  0  0  0  0  0  0  0
    2.2890    1.9220   22.3970 H   0  0  0  0  0  0  0  0  0  0  0  0
    3.8080    2.3190   21.6750 H   0  0  0  0  0  0  0  0  0  0  0  0
  1 11  1  0  0  0  0
  1  2  1  0  0  0  0
  2 15  1  0  0  0  0
  3  8  1  0  0  0  0
  3  2  2  0  0  0  0
  4  3  1  0  0  0  0
  5  6  1  0  0  0  0
  5  4  2  0  0  0  0
  6  1  2  0  0  0  0
  7  5  1  0  0  0  0
  9  4  1  0  0  0  0
 10  6  1  0  0  0  0
 11 13  1  0  0  0  0
 11 14  1  0  0  0  0
 12 11  1  0  0  0  0
 15 16  2  0  0  0  0
 15 18  1  0  0  0  0
 17 15  2  0  0  0  0
 18 22  1  0  0  0  0
 18 19  1  0  0  0  0
 19 20  2  0  0  0  0
 19 21  1  0  0  0  0
 21 23  1  0  0  0  0
 24 21  1  0  0  0  0
M  END
>  <MODEL>
21

>  <REMARK>
 VINA RESULT:    -5.804      3.842      5.076
 INTER + INTRA:          -6.525
 INTER:                  -6.932
 INTRA:                   0.407
 UNBOUND:                 0.127
  Name = 
  3 active torsions:
  status: ('A' for Active; 'I' for Inactive)
    1  A    between atoms: C_1  and  C_2
    2  A    between atoms: C_3  and  S_9
    3  A    between atoms: S_9  and  N_12
                            x       y       z     vdW  Elec       q    Type
                         _______ _______ _______ _____ _____    ______ ____

>  <TORSDO>
F 3

$$$$
=
 OpenBabel07192307433D

 24 24  0  0  0  0  0  0  0  0999 V2000
    2.2410    4.6480   19.9740 C   0  0  0  0  0  0  0  0  0  0  0  0
    2.9990    5.1510   18.8950 C   0  0  0  0  0  0  0  0  0  0  0  0
    3.0430    6.5320   18.6360 C   0  0  0  0  0  0  0  0  0  0  0  0
    2.3320    7.4220   19.4400 C   0  0  0  0  0  0  0  0  0  0  0  0
    1.5900    6.9320   20.5040 C   0  0  0  0  0  0  0  0  0  0  0  0
    1.5430    5.5670   20.7780 C   0  0  0  0  0  0  0  0  0  0  0  0
    0.9100    7.7820   21.2830 F   0  0  0  0  0  0  0  0  0  0  0  0
    3.6190    6.9230   17.7990 H   0  0  0  0  0  0  0  0  0  0  0  0
    2.3540    8.4890   19.2420 H   0  0  0  0  0  0  0  0  0  0  0  0
    0.9540    5.2330   21.6300 H   0  0  0  0  0  0  0  0  0  0  0  0
    2.1670    3.1920   20.3370 C   0  0  0  0  0  0  0  0  0  0  0  0
    3.1620    2.7390   20.2990 H   0  0  0  0  0  0  0  0  0  0  0  0
    1.7810    3.0560   21.3540 H   0  0  0  0  0  0  0  0  0  0  0  0
    1.4840    2.6520   19.6740 H   0  0  0  0  0  0  0  0  0  0  0  0
    3.9710    4.0880   17.8370 S   0  0  0  0  0  0  0  0  0  0  0  0
    4.9900    3.4310   18.6250 O   0  0  0  0  0  0  0  0  0  0  0  0
    3.0560    3.3030   17.0330 O   0  0  0  0  0  0  0  0  0  0  0  0
    4.7100    5.1390   16.7830 N   0  0  0  0  0  0  0  0  0  0  0  0
    5.6020    4.7670   15.8020 C   0  0  0  0  0  0  0  0  0  0  0  0
    5.9910    3.6290   15.6030 O   0  0  0  0  0  0  0  0  0  0  0  0
    6.0340    5.8100   15.0580 N   0  0  0  0  0  0  0  0  0  0  0  0
    4.5220    6.1100   16.9870 H   0  0  0  0  0  0  0  0  0  0  0  0
    6.5780    5.5630   14.2410 H   0  0  0  0  0  0  0  0  0  0  0  0
    5.5240    6.6780   15.0360 H   0  0  0  0  0  0  0  0  0  0  0  0
  1 11  1  0  0  0  0
  1  6  1  0  0  0  0
  2  1  2  0  0  0  0
  3  2  1  0  0  0  0
  3  4  2  0  0  0  0
  4  5  1  0  0  0  0
  5  6  2  0  0  0  0
  5  7  1  0  0  0  0
  6 10  1  0  0  0  0
  8  3  1  0  0  0  0
  9  4  1  0  0  0  0
 11 13  1  0  0  0  0
 12 11  1  0  0  0  0
 14 11  1  0  0  0  0
 15 16  2  0  0  0  0
 15  2  1  0  0  0  0
 17 15  2  0  0  0  0
 18 22  1  0  0  0  0
 18 15  1  0  0  0  0
 19 18  1  0  0  0  0
 20 19  2  0  0  0  0
 21 19  1  0  0  0  0
 23 21  1  0  0  0  0
 24 21  1  0  0  0  0
M  END
>  <MODEL>
22

>  <REMARK>
 VINA RESULT:    -5.795      3.093      3.877
 INTER + INTRA:          -6.515
 INTER:                  -6.380
 INTRA:                  -0.135
 UNBOUND:                 0.127
  Name = 
  3 active torsions:
  status: ('A' for Active; 'I' for Inactive)
    1  A    between atoms: C_1  and  C_2
    2  A    between atoms: C_3  and  S_9
    3  A    between atoms: S_9  and  N_12
                            x       y       z     vdW  Elec       q    Type
                         _______ _______ _______ _____ _____    ______ ____

>  <TORSDO>
F 3

$$$$
=
 OpenBabel07192307433D

 24 24  0  0  0  0  0  0  0  0999 V2000
    3.2530    6.2050   18.6650 C   0  0  0  0  0  0  0  0  0  0  0  0
    3.2720    4.8340   18.9970 C   0  0  0  0  0  0  0  0  0  0  0  0
    2.5020    4.3480   20.0680 C   0  0  0  0  0  0  0  0  0  0  0  0
    1.7150    5.2180   20.8210 C   0  0  0  0  0  0  0  0  0  0  0  0
    1.6910    6.5660   20.4950 C   0  0  0  0  0  0  0  0  0  0  0  0
    2.4410    7.0610   19.4320 C   0  0  0  0  0  0  0  0  0  0  0  0
    0.9310    7.4050   21.2100 F   0  0  0  0  0  0  0  0  0  0  0  0
    2.5220    3.2920   20.3330 H   0  0  0  0  0  0  0  0  0  0  0  0
    1.1240    4.8520   21.6540 H   0  0  0  0  0  0  0  0  0  0  0  0
    2.3810    8.1240   19.2110 H   0  0  0  0  0  0  0  0  0  0  0  0
    4.0210    6.7980   17.5180 C   0  0  0  0  0  0  0  0  0  0  0  0
    3.3900    6.8560   16.6270 H   0  0  0  0  0  0  0  0  0  0  0  0
    4.3580    7.8150   17.7500 H   0  0  0  0  0  0  0  0  0  0  0  0
    4.9220    6.2170   17.3020 H   0  0  0  0  0  0  0  0  0  0  0  0
    4.2210    3.6420   18.0640 S   0  0  0  0  0  0  0  0  0  0  0  0
    3.8790    2.3070   18.5050 O   0  0  0  0  0  0  0  0  0  0  0  0
    4.1210    3.9910   16.6610 O   0  0  0  0  0  0  0  0  0  0  0  0
    5.7950    3.9550   18.4960 N   0  0  0  0  0  0  0  0  0  0  0  0
    6.7790    4.3710   17.6260 C   0  0  0  0  0  0  0  0  0  0  0  0
    6.6330    4.5300   16.4270 O   0  0  0  0  0  0  0  0  0  0  0  0
    7.9660    4.5880   18.2360 N   0  0  0  0  0  0  0  0  0  0  0  0
    6.0030    3.7160   19.4550 H   0  0  0  0  0  0  0  0  0  0  0  0
    8.6740    5.0280   17.6620 H   0  0  0  0  0  0  0  0  0  0  0  0
    8.0200    4.7240   19.2330 H   0  0  0  0  0  0  0  0  0  0  0  0
  1  2  2  0  0  0  0
  1  6  1  0  0  0  0
  2  3  1  0  0  0  0
  3  8  1  0  0  0  0
  3  4  2  0  0  0  0
  4  9  1  0  0  0  0
  5  4  1  0  0  0  0
  5  7  1  0  0  0  0
  6  5  2  0  0  0  0
 10  6  1  0  0  0  0
 11 13  1  0  0  0  0
 11  1  1  0  0  0  0
 12 11  1  0  0  0  0
 14 11  1  0  0  0  0
 15 18  1  0  0  0  0
 15 16  2  0  0  0  0
 15  2  1  0  0  0  0
 17 15  2  0  0  0  0
 18 22  1  0  0  0  0
 19 21  1  0  0  0  0
 19 18  1  0  0  0  0
 20 19  2  0  0  0  0
 21 24  1  0  0  0  0
 23 21  1  0  0  0  0
M  END
>  <MODEL>
23

>  <REMARK>
 VINA RESULT:    -5.661      2.477      3.105
 INTER + INTRA:          -6.361
 INTER:                  -7.069
 INTRA:                   0.708
 UNBOUND:                 0.127
  Name = 
  3 active torsions:
  status: ('A' for Active; 'I' for Inactive)
    1  A    between atoms: C_1  and  C_2
    2  A    between atoms: C_3  and  S_9
    3  A    between atoms: S_9  and  N_12
                            x       y       z     vdW  Elec       q    Type
                         _______ _______ _______ _____ _____    ______ ____

>  <TORSDO>
F 3

$$$$
=
 OpenBabel07192307433D

 24 24  0  0  0  0  0  0  0  0999 V2000
    3.5260    3.9900   18.1130 C   0  0  0  0  0  0  0  0  0  0  0  0
    4.2720    5.1290   17.7440 C   0  0  0  0  0  0  0  0  0  0  0  0
    3.9760    6.3870   18.2990 C   0  0  0  0  0  0  0  0  0  0  0  0
    2.9360    6.5250   19.2150 C   0  0  0  0  0  0  0  0  0  0  0  0
    2.2030    5.4060   19.5840 C   0  0  0  0  0  0  0  0  0  0  0  0
    2.4890    4.1530   19.0500 C   0  0  0  0  0  0  0  0  0  0  0  0
    1.2070    5.5310   20.4700 F   0  0  0  0  0  0  0  0  0  0  0  0
    4.5430    7.2700   18.0090 H   0  0  0  0  0  0  0  0  0  0  0  0
    2.6950    7.4930   19.6420 H   0  0  0  0  0  0  0  0  0  0  0  0
    1.8920    3.3050   19.3780 H   0  0  0  0  0  0  0  0  0  0  0  0
    3.7990    2.6070   17.5920 C   0  0  0  0  0  0  0  0  0  0  0  0
    4.6300    2.6250   16.8820 H   0  0  0  0  0  0  0  0  0  0  0  0
    4.0720    1.9250   18.4050 H   0  0  0  0  0  0  0  0  0  0  0  0
    2.9100    2.1800   17.1180 H   0  0  0  0  0  0  0  0  0  0  0  0
    5.6460    5.0400   16.6050 S   0  0  0  0  0  0  0  0  0  0  0  0
    6.6260    4.1030   17.1100 O   0  0  0  0  0  0  0  0  0  0  0  0
    5.1080    4.8780   15.2690 O   0  0  0  0  0  0  0  0  0  0  0  0
    6.3010    6.5660   16.6460 N   0  0  0  0  0  0  0  0  0  0  0  0
    7.2860    6.9740   17.5180 C   0  0  0  0  0  0  0  0  0  0  0  0
    7.7780    6.2830   18.3930 O   0  0  0  0  0  0  0  0  0  0  0  0
    7.6680    8.2570   17.3220 N   0  0  0  0  0  0  0  0  0  0  0  0
    5.8390    7.2180   16.0270 H   0  0  0  0  0  0  0  0  0  0  0  0
    8.4820    8.5500   17.8450 H   0  0  0  0  0  0  0  0  0  0  0  0
    7.4730    8.7280   16.4540 H   0  0  0  0  0  0  0  0  0  0  0  0
  1  6  1  0  0  0  0
  2  1  2  0  0  0  0
  2  3  1  0  0  0  0
  3  4  2  0  0  0  0
  4  5  1  0  0  0  0
  4  9  1  0  0  0  0
  5  7  1  0  0  0  0
  6 10  1  0  0  0  0
  6  5  2  0  0  0  0
  8  3  1  0  0  0  0
 11  1  1  0  0  0  0
 11 13  1  0  0  0  0
 12 11  1  0  0  0  0
 14 11  1  0  0  0  0
 15 18  1  0  0  0  0
 15 16  2  0  0  0  0
 15  2  1  0  0  0  0
 17 15  2  0  0  0  0
 18 19  1  0  0  0  0
 19 20  2  0  0  0  0
 21 19  1  0  0  0  0
 21 23  1  0  0  0  0
 22 18  1  0  0  0  0
 24 21  1  0  0  0  0
M  END
>  <MODEL>
24

>  <REMARK>
 VINA RESULT:    -5.659      2.037      2.800
 INTER + INTRA:          -6.359
 INTER:                  -6.606
 INTRA:                   0.248
 UNBOUND:                 0.127
  Name = 
  3 active torsions:
  status: ('A' for Active; 'I' for Inactive)
    1  A    between atoms: C_1  and  C_2
    2  A    between atoms: C_3  and  S_9
    3  A    between atoms: S_9  and  N_12
                            x       y       z     vdW  Elec       q    Type
                         _______ _______ _______ _____ _____    ______ ____

>  <TORSDO>
F 3

$$$$
=
 OpenBabel07192307433D

 24 24  0  0  0  0  0  0  0  0999 V2000
    3.7150    6.2420   17.7700 C   0  0  0  0  0  0  0  0  0  0  0  0
    3.2840    5.4740   18.8730 C   0  0  0  0  0  0  0  0  0  0  0  0
    2.4030    6.0190   19.8230 C   0  0  0  0  0  0  0  0  0  0  0  0
    1.9480    7.3300   19.6900 C   0  0  0  0  0  0  0  0  0  0  0  0
    2.3650    8.0870   18.6040 C   0  0  0  0  0  0  0  0  0  0  0  0
    3.2310    7.5580   17.6510 C   0  0  0  0  0  0  0  0  0  0  0  0
    1.9250    9.3440   18.4680 F   0  0  0  0  0  0  0  0  0  0  0  0
    2.0770    5.4330   20.6800 H   0  0  0  0  0  0  0  0  0  0  0  0
    1.2740    7.7610   20.4220 H   0  0  0  0  0  0  0  0  0  0  0  0
    3.5210    8.1890   16.8140 H   0  0  0  0  0  0  0  0  0  0  0  0
    4.6290    5.7240   16.6960 C   0  0  0  0  0  0  0  0  0  0  0  0
    4.1090    4.9880   16.0760 H   0  0  0  0  0  0  0  0  0  0  0  0
    4.9640    6.5340   16.0370 H   0  0  0  0  0  0  0  0  0  0  0  0
    5.5330    5.2830   17.1240 H   0  0  0  0  0  0  0  0  0  0  0  0
    3.7870    3.7750   19.1030 S   0  0  0  0  0  0  0  0  0  0  0  0
    3.1930    2.9560   18.0680 O   0  0  0  0  0  0  0  0  0  0  0  0
    5.2210    3.7570   19.3080 O   0  0  0  0  0  0  0  0  0  0  0  0
    3.1170    3.3520   20.5640 N   0  0  0  0  0  0  0  0  0  0  0  0
    1.8550    2.8240   20.7240 C   0  0  0  0  0  0  0  0  0  0  0  0
    1.0560    2.6290   19.8250 O   0  0  0  0  0  0  0  0  0  0  0  0
    1.5630    2.5360   22.0130 N   0  0  0  0  0  0  0  0  0  0  0  0
    3.6870    3.6120   21.3560 H   0  0  0  0  0  0  0  0  0  0  0  0
    0.7060    2.0180   22.1570 H   0  0  0  0  0  0  0  0  0  0  0  0
    2.2920    2.4360   22.7000 H   0  0  0  0  0  0  0  0  0  0  0  0
  1  2  1  0  0  0  0
  2 15  1  0  0  0  0
  2  3  2  0  0  0  0
  3  8  1  0  0  0  0
  4  3  1  0  0  0  0
  4  9  1  0  0  0  0
  5  4  2  0  0  0  0
  6  1  2  0  0  0  0
  6  5  1  0  0  0  0
  7  5  1  0  0  0  0
 10  6  1  0  0  0  0
 11 14  1  0  0  0  0
 11  1  1  0  0  0  0
 12 11  1  0  0  0  0
 13 11  1  0  0  0  0
 15 17  2  0  0  0  0
 15 18  1  0  0  0  0
 16 15  2  0  0  0  0
 18 19  1  0  0  0  0
 18 22  1  0  0  0  0
 19 21  1  0  0  0  0
 20 19  2  0  0  0  0
 21 23  1  0  0  0  0
 21 24  1  0  0  0  0
M  END
>  <MODEL>
25

>  <REMARK>
 VINA RESULT:    -5.648      3.602      4.911
 INTER + INTRA:          -6.346
 INTER:                  -6.614
 INTRA:                   0.267
 UNBOUND:                 0.127
  Name = 
  3 active torsions:
  status: ('A' for Active; 'I' for Inactive)
    1  A    between atoms: C_1  and  C_2
    2  A    between atoms: C_3  and  S_9
    3  A    between atoms: S_9  and  N_12
                            x       y       z     vdW  Elec       q    Type
                         _______ _______ _______ _____ _____    ______ ____

>  <TORSDO>
F 3

$$$$
=
 OpenBabel07192307433D

 24 24  0  0  0  0  0  0  0  0999 V2000
    4.5430    4.0190   16.9270 C   0  0  0  0  0  0  0  0  0  0  0  0
    4.3010    5.4070   16.9990 C   0  0  0  0  0  0  0  0  0  0  0  0
    4.9480    6.2910   16.1180 C   0  0  0  0  0  0  0  0  0  0  0  0
    5.8420    5.8070   15.1650 C   0  0  0  0  0  0  0  0  0  0  0  0
    6.0780    4.4420   15.0870 C   0  0  0  0  0  0  0  0  0  0  0  0
    5.4390    3.5530   15.9470 C   0  0  0  0  0  0  0  0  0  0  0  0
    6.9310    3.9710   14.1690 F   0  0  0  0  0  0  0  0  0  0  0  0
    4.7710    7.3640   16.1780 H   0  0  0  0  0  0  0  0  0  0  0  0
    6.3510    6.4830   14.4860 H   0  0  0  0  0  0  0  0  0  0  0  0
    5.6510    2.4920   15.8410 H   0  0  0  0  0  0  0  0  0  0  0  0
    3.8690    3.0060   17.8090 C   0  0  0  0  0  0  0  0  0  0  0  0
    2.9180    2.6920   17.3710 H   0  0  0  0  0  0  0  0  0  0  0  0
    4.4900    2.1090   17.9280 H   0  0  0  0  0  0  0  0  0  0  0  0
    3.7060    3.4020   18.8150 H   0  0  0  0  0  0  0  0  0  0  0  0
    3.1440    6.1120   18.1640 S   0  0  0  0  0  0  0  0  0  0  0  0
    1.9010    5.3730   18.1100 O   0  0  0  0  0  0  0  0  0  0  0  0
    3.8310    6.2850   19.4270 O   0  0  0  0  0  0  0  0  0  0  0  0
    2.8740    7.6460   17.5830 N   0  0  0  0  0  0  0  0  0  0  0  0
    2.1420    8.6130   18.2350 C   0  0  0  0  0  0  0  0  0  0  0  0
    1.5690    8.4610   19.3000 O   0  0  0  0  0  0  0  0  0  0  0  0
    2.1010    9.7870   17.5640 N   0  0  0  0  0  0  0  0  0  0  0  0
    3.2180    7.7850   16.6440 H   0  0  0  0  0  0  0  0  0  0  0  0
    1.6950   10.5620   18.0710 H   0  0  0  0  0  0  0  0  0  0  0  0
    2.7780    9.9980   16.8480 H   0  0  0  0  0  0  0  0  0  0  0  0
  1  2  1  0  0  0  0
  1 11  1  0  0  0  0
  2 15  1  0  0  0  0
  3  8  1  0  0  0  0
  3  2  2  0  0  0  0
  4  3  1  0  0  0  0
  5  4  2  0  0  0  0
  5  6  1  0  0  0  0
  6  1  2  0  0  0  0
  7  5  1  0  0  0  0
  9  4  1  0  0  0  0
 10  6  1  0  0  0  0
 11 13  1  0  0  0  0
 11 14  1  0  0  0  0
 12 11  1  0  0  0  0
 15 17  2  0  0  0  0
 16 15  2  0  0  0  0
 18 15  1  0  0  0  0
 18 19  1  0  0  0  0
 19 20  2  0  0  0  0
 21 23  1  0  0  0  0
 21 19  1  0  0  0  0
 22 18  1  0  0  0  0
 24 21  1  0  0  0  0
M  END
>  <MODEL>
26

>  <REMARK>
 VINA RESULT:    -5.632      3.916      5.126
 INTER + INTRA:          -6.327
 INTER:                  -6.332
 INTRA:                   0.005
 UNBOUND:                 0.127
  Name = 
  3 active torsions:
  status: ('A' for Active; 'I' for Inactive)
    1  A    between atoms: C_1  and  C_2
    2  A    between atoms: C_3  and  S_9
    3  A    between atoms: S_9  and  N_12
                            x       y       z     vdW  Elec       q    Type
                         _______ _______ _______ _____ _____    ______ ____

>  <TORSDO>
F 3

$$$$
=
 OpenBabel07192307433D

 24 24  0  0  0  0  0  0  0  0999 V2000
    2.2060    8.0510   18.7130 C   0  0  0  0  0  0  0  0  0  0  0  0
    2.1000    7.0570   19.7090 C   0  0  0  0  0  0  0  0  0  0  0  0
    1.3820    7.3040   20.8920 C   0  0  0  0  0  0  0  0  0  0  0  0
    0.7710    8.5390   21.0980 C   0  0  0  0  0  0  0  0  0  0  0  0
    0.8680    9.5180   20.1200 C   0  0  0  0  0  0  0  0  0  0  0  0
    1.5690    9.2850   18.9400 C   0  0  0  0  0  0  0  0  0  0  0  0
    0.2760   10.7040   20.3100 F   0  0  0  0  0  0  0  0  0  0  0  0
    1.3070    6.5430   21.6660 H   0  0  0  0  0  0  0  0  0  0  0  0
    0.2210    8.7420   22.0120 H   0  0  0  0  0  0  0  0  0  0  0  0
    1.6080   10.0800   18.1990 H   0  0  0  0  0  0  0  0  0  0  0  0
    2.9270    7.8550   17.4090 C   0  0  0  0  0  0  0  0  0  0  0  0
    2.2380    7.4860   16.6450 H   0  0  0  0  0  0  0  0  0  0  0  0
    3.3490    8.7990   17.0450 H   0  0  0  0  0  0  0  0  0  0  0  0
    3.7690    7.1650   17.5220 H   0  0  0  0  0  0  0  0  0  0  0  0
    2.8200    5.4330   19.5130 S   0  0  0  0  0  0  0  0  0  0  0  0
    2.3090    4.8260   18.3030 O   0  0  0  0  0  0  0  0  0  0  0  0
    4.2500    5.5510   19.7170 O   0  0  0  0  0  0  0  0  0  0  0  0
    2.2470    4.5800   20.8180 N   0  0  0  0  0  0  0  0  0  0  0  0
    2.5100    3.2500   21.0620 C   0  0  0  0  0  0  0  0  0  0  0  0
    3.1640    2.5200   20.3380 O   0  0  0  0  0  0  0  0  0  0  0  0
    1.9510    2.8030   22.2100 N   0  0  0  0  0  0  0  0  0  0  0  0
    1.5930    5.1020   21.3830 H   0  0  0  0  0  0  0  0  0  0  0  0
    2.2350    1.8750   22.4960 H   0  0  0  0  0  0  0  0  0  0  0  0
    1.6560    3.4450   22.9270 H   0  0  0  0  0  0  0  0  0  0  0  0
  1  6  2  0  0  0  0
  1  2  1  0  0  0  0
  2  3  2  0  0  0  0
  3  4  1  0  0  0  0
  3  8  1  0  0  0  0
  4  9  1  0  0  0  0
  5  7  1  0  0  0  0
  5  4  2  0  0  0  0
  6  5  1  0  0  0  0
 10  6  1  0  0  0  0
 11 14  1  0  0  0  0
 11  1  1  0  0  0  0
 12 11  1  0  0  0  0
 13 11  1  0  0  0  0
 15  2  1  0  0  0  0
 15 17  2  0  0  0  0
 15 18  1  0  0  0  0
 16 15  2  0  0  0  0
 18 19  1  0  0  0  0
 18 22  1  0  0  0  0
 19 21  1  0  0  0  0
 20 19  2  0  0  0  0
 21 23  1  0  0  0  0
 21 24  1  0  0  0  0
M  END
>  <MODEL>
27

>  <REMARK>
 VINA RESULT:    -5.629      4.202      5.448
 INTER + INTRA:          -6.325
 INTER:                  -6.220
 INTRA:                  -0.105
 UNBOUND:                 0.127
  Name = 
  3 active torsions:
  status: ('A' for Active; 'I' for Inactive)
    1  A    between atoms: C_1  and  C_2
    2  A    between atoms: C_3  and  S_9
    3  A    between atoms: S_9  and  N_12
                            x       y       z     vdW  Elec       q    Type
                         _______ _______ _______ _____ _____    ______ ____

>  <TORSDO>
F 3

$$$$
=
 OpenBabel07192307433D

 24 24  0  0  0  0  0  0  0  0999 V2000
    3.2990    3.6070   18.4420 C   0  0  0  0  0  0  0  0  0  0  0  0
    3.8970    4.8850   18.4390 C   0  0  0  0  0  0  0  0  0  0  0  0
    3.3320    5.9400   19.1780 C   0  0  0  0  0  0  0  0  0  0  0  0
    2.1690    5.7360   19.9180 C   0  0  0  0  0  0  0  0  0  0  0  0
    1.5810    4.4800   19.9280 C   0  0  0  0  0  0  0  0  0  0  0  0
    2.1330    3.4240   19.2080 C   0  0  0  0  0  0  0  0  0  0  0  0
    0.4670    4.2770   20.6430 F   0  0  0  0  0  0  0  0  0  0  0  0
    3.7850    6.9290   19.1700 H   0  0  0  0  0  0  0  0  0  0  0  0
    1.7220    6.5460   20.4850 H   0  0  0  0  0  0  0  0  0  0  0  0
    1.6390    2.4560   19.2540 H   0  0  0  0  0  0  0  0  0  0  0  0
    3.8560    2.4220   17.7060 C   0  0  0  0  0  0  0  0  0  0  0  0
    3.8530    1.5380   18.3490 H   0  0  0  0  0  0  0  0  0  0  0  0
    3.2550    2.1870   16.8190 H   0  0  0  0  0  0  0  0  0  0  0  0
    4.8700    2.6200   17.3460 H   0  0  0  0  0  0  0  0  0  0  0  0
    5.4080    5.2270   17.5490 S   0  0  0  0  0  0  0  0  0  0  0  0
    5.6010    6.6580   17.4650 O   0  0  0  0  0  0  0  0  0  0  0  0
    6.4510    4.3860   18.1020 O   0  0  0  0  0  0  0  0  0  0  0  0
    5.1170    4.6400   16.0220 N   0  0  0  0  0  0  0  0  0  0  0  0
    6.0560    4.5700   15.0170 C   0  0  0  0  0  0  0  0  0  0  0  0
    7.2070    4.9610   15.1040 O   0  0  0  0  0  0  0  0  0  0  0  0
    5.5720    4.0210   13.8790 N   0  0  0  0  0  0  0  0  0  0  0  0
    4.1450    4.4210   15.8550 H   0  0  0  0  0  0  0  0  0  0  0  0
    6.2620    3.8230   13.1670 H   0  0  0  0  0  0  0  0  0  0  0  0
    4.7350    3.4620   13.8890 H   0  0  0  0  0  0  0  0  0  0  0  0
  1  6  1  0  0  0  0
  2  1  2  0  0  0  0
  2  3  1  0  0  0  0
  3  4  2  0  0  0  0
  4  5  1  0  0  0  0
  4  9  1  0  0  0  0
  5  7  1  0  0  0  0
  6 10  1  0  0  0  0
  6  5  2  0  0  0  0
  8  3  1  0  0  0  0
 11 12  1  0  0  0  0
 11  1  1  0  0  0  0
 13 11  1  0  0  0  0
 14 11  1  0  0  0  0
 15 17  2  0  0  0  0
 15  2  1  0  0  0  0
 16 15  2  0  0  0  0
 18 15  1  0  0  0  0
 19 20  2  0  0  0  0
 19 18  1  0  0  0  0
 21 24  1  0  0  0  0
 21 19  1  0  0  0  0
 22 18  1  0  0  0  0
 23 21  1  0  0  0  0
M  END
>  <MODEL>
28

>  <REMARK>
 VINA RESULT:    -5.552      2.265      3.408
 INTER + INTRA:          -6.236
 INTER:                  -6.472
 INTRA:                   0.236
 UNBOUND:                 0.127
  Name = 
  3 active torsions:
  status: ('A' for Active; 'I' for Inactive)
    1  A    between atoms: C_1  and  C_2
    2  A    between atoms: C_3  and  S_9
    3  A    between atoms: S_9  and  N_12
                            x       y       z     vdW  Elec       q    Type
                         _______ _______ _______ _____ _____    ______ ____

>  <TORSDO>
F 3

$$$$
=
 OpenBabel07192307433D

 24 24  0  0  0  0  0  0  0  0999 V2000
    2.2820    6.4190   19.7850 C   0  0  0  0  0  0  0  0  0  0  0  0
    2.9990    6.1720   18.5950 C   0  0  0  0  0  0  0  0  0  0  0  0
    3.1730    7.1910   17.6420 C   0  0  0  0  0  0  0  0  0  0  0  0
    2.6320    8.4570   17.8580 C   0  0  0  0  0  0  0  0  0  0  0  0
    1.9310    8.7050   19.0300 C   0  0  0  0  0  0  0  0  0  0  0  0
    1.7570    7.7090   19.9870 C   0  0  0  0  0  0  0  0  0  0  0  0
    1.4150    9.9220   19.2460 F   0  0  0  0  0  0  0  0  0  0  0  0
    3.7170    7.0010   16.7180 H   0  0  0  0  0  0  0  0  0  0  0  0
    2.7540    9.2470   17.1250 H   0  0  0  0  0  0  0  0  0  0  0  0
    1.2080    7.9550   20.8920 H   0  0  0  0  0  0  0  0  0  0  0  0
    2.0790    5.3960   20.8670 C   0  0  0  0  0  0  0  0  0  0  0  0
    1.8150    4.4280   20.4310 H   0  0  0  0  0  0  0  0  0  0  0  0
    2.9940    5.2550   21.4550 H   0  0  0  0  0  0  0  0  0  0  0  0
    1.3060    5.7130   21.5730 H   0  0  0  0  0  0  0  0  0  0  0  0
    3.7580    4.5920   18.2520 S   0  0  0  0  0  0  0  0  0  0  0  0
    4.1410    4.5380   16.8580 O   0  0  0  0  0  0  0  0  0  0  0  0
    4.7410    4.3350   19.2840 O   0  0  0  0  0  0  0  0  0  0  0  0
    2.5360    3.4950   18.5090 N   0  0  0  0  0  0  0  0  0  0  0  0
    2.6800    2.1280   18.4270 C   0  0  0  0  0  0  0  0  0  0  0  0
    3.7070    1.5470   18.1210 O   0  0  0  0  0  0  0  0  0  0  0  0
    1.5400    1.4590   18.7140 N   0  0  0  0  0  0  0  0  0  0  0  0
    1.6320    3.9250   18.6400 H   0  0  0  0  0  0  0  0  0  0  0  0
    1.6380    0.4560   18.8020 H   0  0  0  0  0  0  0  0  0  0  0  0
    0.7920    1.9030   19.2200 H   0  0  0  0  0  0  0  0  0  0  0  0
  1  6  1  0  0  0  0
  1 11  1  0  0  0  0
  2  1  2  0  0  0  0
  3  4  2  0  0  0  0
  3  2  1  0  0  0  0
  4  5  1  0  0  0  0
  5  7  1  0  0  0  0
  5  6  2  0  0  0  0
  6 10  1  0  0  0  0
  8  3  1  0  0  0  0
  9  4  1  0  0  0  0
 11 13  1  0  0  0  0
 11 14  1  0  0  0  0
 12 11  1  0  0  0  0
 15 18  1  0  0  0  0
 15  2  1  0  0  0  0
 15 17  2  0  0  0  0
 16 15  2  0  0  0  0
 18 22  1  0  0  0  0
 19 18  1  0  0  0  0
 19 21  1  0  0  0  0
 20 19  2  0  0  0  0
 21 23  1  0  0  0  0
 21 24  1  0  0  0  0
M  END
>  <MODEL>
29

>  <REMARK>
 VINA RESULT:    -5.432      3.466      4.825
 INTER + INTRA:          -6.099
 INTER:                  -6.322
 INTRA:                   0.224
 UNBOUND:                 0.127
  Name = 
  3 active torsions:
  status: ('A' for Active; 'I' for Inactive)
    1  A    between atoms: C_1  and  C_2
    2  A    between atoms: C_3  and  S_9
    3  A    between atoms: S_9  and  N_12
                            x       y       z     vdW  Elec       q    Type
                         _______ _______ _______ _____ _____    ______ ____

>  <TORSDO>
F 3

$$$$
=
 OpenBabel07192307433D

 24 24  0  0  0  0  0  0  0  0999 V2000
    3.5420    6.3040   18.2490 C   0  0  0  0  0  0  0  0  0  0  0  0
    3.6450    5.2620   19.1950 C   0  0  0  0  0  0  0  0  0  0  0  0
    4.8280    4.5090   19.3010 C   0  0  0  0  0  0  0  0  0  0  0  0
    5.9110    4.7790   18.4670 C   0  0  0  0  0  0  0  0  0  0  0  0
    5.8160    5.8060   17.5400 C   0  0  0  0  0  0  0  0  0  0  0  0
    4.6540    6.5660   17.4280 C   0  0  0  0  0  0  0  0  0  0  0  0
    6.8560    6.0740   16.7410 F   0  0  0  0  0  0  0  0  0  0  0  0
    4.9070    3.6980   20.0230 H   0  0  0  0  0  0  0  0  0  0  0  0
    6.8250    4.1980   18.5370 H   0  0  0  0  0  0  0  0  0  0  0  0
    4.6320    7.3660   16.6920 H   0  0  0  0  0  0  0  0  0  0  0  0
    2.3270    7.1760   18.0940 C   0  0  0  0  0  0  0  0  0  0  0  0
    2.5110    7.9560   17.3510 H   0  0  0  0  0  0  0  0  0  0  0  0
    1.4630    6.5930   17.7550 H   0  0  0  0  0  0  0  0  0  0  0  0
    2.0390    7.6260   19.0480 H   0  0  0  0  0  0  0  0  0  0  0  0
    2.3210    4.8710   20.3280 S   0  0  0  0  0  0  0  0  0  0  0  0
    2.8350    4.0440   21.3980 O   0  0  0  0  0  0  0  0  0  0  0  0
    1.6180    6.1010   20.6360 O   0  0  0  0  0  0  0  0  0  0  0  0
    1.2670    3.9660   19.4170 N   0  0  0  0  0  0  0  0  0  0  0  0
    1.4570    2.6430   19.0810 C   0  0  0  0  0  0  0  0  0  0  0  0
    2.4340    1.9780   19.3770 O   0  0  0  0  0  0  0  0  0  0  0  0
    0.4340    2.1290   18.3610 N   0  0  0  0  0  0  0  0  0  0  0  0
    0.5010    4.5030   19.0370 H   0  0  0  0  0  0  0  0  0  0  0  0
    0.4680    1.1290   18.2150 H   0  0  0  0  0  0  0  0  0  0  0  0
   -0.4690    2.5740   18.3520 H   0  0  0  0  0  0  0  0  0  0  0  0
  1  2  1  0  0  0  0
  2  3  2  0  0  0  0
  2 15  1  0  0  0  0
  3  8  1  0  0  0  0
  4  9  1  0  0  0  0
  4  3  1  0  0  0  0
  5  4  2  0  0  0  0
  6  5  1  0  0  0  0
  6  1  2  0  0  0  0
  7  5  1  0  0  0  0
 10  6  1  0  0  0  0
 11  1  1  0  0  0  0
 11 14  1  0  0  0  0
 12 11  1  0  0  0  0
 13 11  1  0  0  0  0
 15 17  2  0  0  0  0
 15 16  2  0  0  0  0
 18 15  1  0  0  0  0
 19 20  2  0  0  0  0
 19 18  1  0  0  0  0
 21 19  1  0  0  0  0
 22 18  1  0  0  0  0
 23 21  1  0  0  0  0
 24 21  1  0  0  0  0
M  END
>  <MODEL>
30

>  <REMARK>
 VINA RESULT:    -5.403      4.191      5.216
 INTER + INTRA:          -6.065
 INTER:                  -6.461
 INTRA:                   0.396
 UNBOUND:                 0.127
  Name = 
  3 active torsions:
  status: ('A' for Active; 'I' for Inactive)
    1  A    between atoms: C_1  and  C_2
    2  A    between atoms: C_3  and  S_9
    3  A    between atoms: S_9  and  N_12
                            x       y       z     vdW  Elec       q    Type
                         _______ _______ _______ _____ _____    ______ ____

>  <TORSDO>
F 3

$$$$
=
 OpenBabel07192307433D

 24 24  0  0  0  0  0  0  0  0999 V2000
    5.8950    5.0120   18.0730 C   0  0  0  0  0  0  0  0  0  0  0  0
    5.4730    4.4850   16.8340 C   0  0  0  0  0  0  0  0  0  0  0  0
    4.5000    3.4710   16.7830 C   0  0  0  0  0  0  0  0  0  0  0  0
    3.9450    2.9690   17.9580 C   0  0  0  0  0  0  0  0  0  0  0  0
    4.3540    3.4870   19.1790 C   0  0  0  0  0  0  0  0  0  0  0  0
    5.3100    4.4970   19.2450 C   0  0  0  0  0  0  0  0  0  0  0  0
    3.8180    3.0130   20.3100 F   0  0  0  0  0  0  0  0  0  0  0  0
    4.1800    3.0560   15.8290 H   0  0  0  0  0  0  0  0  0  0  0  0
    3.2000    2.1810   17.9290 H   0  0  0  0  0  0  0  0  0  0  0  0
    5.5900    4.8770   20.2250 H   0  0  0  0  0  0  0  0  0  0  0  0
    6.9040    6.1160   18.2120 C   0  0  0  0  0  0  0  0  0  0  0  0
    6.5760    6.8390   18.9640 H   0  0  0  0  0  0  0  0  0  0  0  0
    7.8770    5.7260   18.5320 H   0  0  0  0  0  0  0  0  0  0  0  0
    7.0740    6.6200   17.2560 H   0  0  0  0  0  0  0  0  0  0  0  0
    6.1030    5.0940   15.2770 S   0  0  0  0  0  0  0  0  0  0  0  0
    5.3170    6.2330   14.8560 O   0  0  0  0  0  0  0  0  0  0  0  0
    7.5430    5.2090   15.3920 O   0  0  0  0  0  0  0  0  0  0  0  0
    5.8330    3.8430   14.2170 N   0  0  0  0  0  0  0  0  0  0  0  0
    6.3890    3.7460   12.9610 C   0  0  0  0  0  0  0  0  0  0  0  0
    7.1190    4.5780   12.4500 O   0  0  0  0  0  0  0  0  0  0  0  0
    6.0350    2.6130   12.3130 N   0  0  0  0  0  0  0  0  0  0  0  0
    5.1340    3.1890   14.5390 H   0  0  0  0  0  0  0  0  0  0  0  0
    6.5300    2.4360   11.4490 H   0  0  0  0  0  0  0  0  0  0  0  0
    5.6720    1.8200   12.8160 H   0  0  0  0  0  0  0  0  0  0  0  0
  1 11  1  0  0  0  0
  1  6  1  0  0  0  0
  2  1  2  0  0  0  0
  3  2  1  0  0  0  0
  3  4  2  0  0  0  0
  4  5  1  0  0  0  0
  5  6  2  0  0  0  0
  5  7  1  0  0  0  0
  6 10  1  0  0  0  0
  8  3  1  0  0  0  0
  9  4  1  0  0  0  0
 11 13  1  0  0  0  0
 11 12  1  0  0  0  0
 14 11  1  0  0  0  0
 15 17  2  0  0  0  0
 15  2  1  0  0  0  0
 16 15  2  0  0  0  0
 18 22  1  0  0  0  0
 18 15  1  0  0  0  0
 19 18  1  0  0  0  0
 20 19  2  0  0  0  0
 21 24  1  0  0  0  0
 21 19  1  0  0  0  0
 23 21  1  0  0  0  0
M  END
>  <MODEL>
31

>  <REMARK>
 VINA RESULT:    -5.397      3.384      4.371
 INTER + INTRA:          -6.059
 INTER:                  -6.186
 INTRA:                   0.127
 UNBOUND:                 0.127
  Name = 
  3 active torsions:
  status: ('A' for Active; 'I' for Inactive)
    1  A    between atoms: C_1  and  C_2
    2  A    between atoms: C_3  and  S_9
    3  A    between atoms: S_9  and  N_12
                            x       y       z     vdW  Elec       q    Type
                         _______ _______ _______ _____ _____    ______ ____

>  <TORSDO>
F 3

$$$$
=
 OpenBabel07192307433D

 24 24  0  0  0  0  0  0  0  0999 V2000
    3.1920    7.0980   18.0430 C   0  0  0  0  0  0  0  0  0  0  0  0
    2.7910    6.5040   19.2580 C   0  0  0  0  0  0  0  0  0  0  0  0
    1.9160    7.1790   20.1280 C   0  0  0  0  0  0  0  0  0  0  0  0
    1.4390    8.4470   19.8020 C   0  0  0  0  0  0  0  0  0  0  0  0
    1.8270    9.0320   18.6060 C   0  0  0  0  0  0  0  0  0  0  0  0
    2.6860    8.3730   17.7310 C   0  0  0  0  0  0  0  0  0  0  0  0
    1.3660   10.2470   18.2840 F   0  0  0  0  0  0  0  0  0  0  0  0
    1.6120    6.7280   21.0710 H   0  0  0  0  0  0  0  0  0  0  0  0
    0.7690    8.9780   20.4710 H   0  0  0  0  0  0  0  0  0  0  0  0
    2.9540    8.8700   16.8010 H   0  0  0  0  0  0  0  0  0  0  0  0
    4.0970    6.4320   17.0460 C   0  0  0  0  0  0  0  0  0  0  0  0
    3.6530    6.4640   16.0470 H   0  0  0  0  0  0  0  0  0  0  0  0
    5.0680    6.9370   16.9930 H   0  0  0  0  0  0  0  0  0  0  0  0
    4.3060    5.3960   17.3300 H   0  0  0  0  0  0  0  0  0  0  0  0
    3.3230    4.8680   19.7400 S   0  0  0  0  0  0  0  0  0  0  0  0
    4.7600    4.7720   19.6040 O   0  0  0  0  0  0  0  0  0  0  0  0
    2.6910    4.5470   21.0040 O   0  0  0  0  0  0  0  0  0  0  0  0
    2.6160    3.8690   18.6160 N   0  0  0  0  0  0  0  0  0  0  0  0
    2.8390    2.5130   18.5200 C   0  0  0  0  0  0  0  0  0  0  0  0
    3.6070    1.8780   19.2220 O   0  0  0  0  0  0  0  0  0  0  0  0
    2.1160    1.9260   17.5400 N   0  0  0  0  0  0  0  0  0  0  0  0
    2.0680    4.3650   17.9270 H   0  0  0  0  0  0  0  0  0  0  0  0
    2.1430    0.9150   17.5290 H   0  0  0  0  0  0  0  0  0  0  0  0
    1.3020    2.3770   17.1560 H   0  0  0  0  0  0  0  0  0  0  0  0
  1  2  1  0  0  0  0
  2 15  1  0  0  0  0
  2  3  2  0  0  0  0
  3  8  1  0  0  0  0
  4  3  1  0  0  0  0
  4  9  1  0  0  0  0
  5  4  2  0  0  0  0
  6  1  2  0  0  0  0
  6  5  1  0  0  0  0
  7  5  1  0  0  0  0
 10  6  1  0  0  0  0
 11 14  1  0  0  0  0
 11  1  1  0  0  0  0
 12 11  1  0  0  0  0
 13 11  1  0  0  0  0
 15 17  2  0  0  0  0
 16 15  2  0  0  0  0
 18 15  1  0  0  0  0
 19 18  1  0  0  0  0
 19 20  2  0  0  0  0
 21 19  1  0  0  0  0
 22 18  1  0  0  0  0
 23 21  1  0  0  0  0
 24 21  1  0  0  0  0
M  END
>  <MODEL>
32

>  <REMARK>
 VINA RESULT:    -5.393      3.683      5.172
 INTER + INTRA:          -6.054
 INTER:                  -6.166
 INTRA:                   0.112
 UNBOUND:                 0.127
  Name = 
  3 active torsions:
  status: ('A' for Active; 'I' for Inactive)
    1  A    between atoms: C_1  and  C_2
    2  A    between atoms: C_3  and  S_9
    3  A    between atoms: S_9  and  N_12
                            x       y       z     vdW  Elec       q    Type
                         _______ _______ _______ _____ _____    ______ ____

>  <TORSDO>
F 3

$$$$
=
 OpenBabel07192307433D

 24 24  0  0  0  0  0  0  0  0999 V2000
    3.2520    6.2260   18.1800 C   0  0  0  0  0  0  0  0  0  0  0  0
    3.2630    4.8370   17.9330 C   0  0  0  0  0  0  0  0  0  0  0  0
    4.1520    4.2850   16.9940 C   0  0  0  0  0  0  0  0  0  0  0  0
    5.0300    5.1060   16.2900 C   0  0  0  0  0  0  0  0  0  0  0  0
    5.0260    6.4720   16.5330 C   0  0  0  0  0  0  0  0  0  0  0  0
    4.1570    7.0320   17.4660 C   0  0  0  0  0  0  0  0  0  0  0  0
    5.8730    7.2650   15.8640 F   0  0  0  0  0  0  0  0  0  0  0  0
    4.1560    3.2150   16.7950 H   0  0  0  0  0  0  0  0  0  0  0  0
    5.7140    4.6900   15.5580 H   0  0  0  0  0  0  0  0  0  0  0  0
    4.1990    8.1070   17.6270 H   0  0  0  0  0  0  0  0  0  0  0  0
    2.3570    6.8890   19.1880 C   0  0  0  0  0  0  0  0  0  0  0  0
    2.9360    7.2170   20.0550 H   0  0  0  0  0  0  0  0  0  0  0  0
    1.8690    7.7750   18.7630 H   0  0  0  0  0  0  0  0  0  0  0  0
    1.5520    6.2190   19.5050 H   0  0  0  0  0  0  0  0  0  0  0  0
    2.1980    3.7050   18.8160 S   0  0  0  0  0  0  0  0  0  0  0  0
    2.2780    3.9810   20.2340 O   0  0  0  0  0  0  0  0  0  0  0  0
    0.9110    3.6910   18.1510 O   0  0  0  0  0  0  0  0  0  0  0  0
    2.8710    2.2130   18.5280 N   0  0  0  0  0  0  0  0  0  0  0  0
    4.0060    1.7330   19.1430 C   0  0  0  0  0  0  0  0  0  0  0  0
    4.6810    2.3490   19.9490 O   0  0  0  0  0  0  0  0  0  0  0  0
    4.3250    0.4770   18.7560 N   0  0  0  0  0  0  0  0  0  0  0  0
    2.4250    1.7110   17.7730 H   0  0  0  0  0  0  0  0  0  0  0  0
    5.0660    0.0360   19.2850 H   0  0  0  0  0  0  0  0  0  0  0  0
    3.6430   -0.1200   18.3190 H   0  0  0  0  0  0  0  0  0  0  0  0
  1 11  1  0  0  0  0
  2  1  1  0  0  0  0
  2 15  1  0  0  0  0
  3  2  2  0  0  0  0
  4  5  2  0  0  0  0
  4  3  1  0  0  0  0
  5  6  1  0  0  0  0
  6 10  1  0  0  0  0
  6  1  2  0  0  0  0
  7  5  1  0  0  0  0
  8  3  1  0  0  0  0
  9  4  1  0  0  0  0
 11 14  1  0  0  0  0
 11 12  1  0  0  0  0
 13 11  1  0  0  0  0
 15 16  2  0  0  0  0
 17 15  2  0  0  0  0
 18 15  1  0  0  0  0
 18 19  1  0  0  0  0
 19 20  2  0  0  0  0
 21 19  1  0  0  0  0
 21 23  1  0  0  0  0
 22 18  1  0  0  0  0
 24 21  1  0  0  0  0
M  END
>  <MODEL>
33

>  <REMARK>
 VINA RESULT:    -5.386      4.004      4.600
 INTER + INTRA:          -6.046
 INTER:                  -6.350
 INTRA:                   0.303
 UNBOUND:                 0.127
  Name = 
  3 active torsions:
  status: ('A' for Active; 'I' for Inactive)
    1  A    between atoms: C_1  and  C_2
    2  A    between atoms: C_3  and  S_9
    3  A    between atoms: S_9  and  N_12
                            x       y       z     vdW  Elec       q    Type
                         _______ _______ _______ _____ _____    ______ ____

>  <TORSDO>
F 3

$$$$
