=
 OpenBabel07192307433D

 56 60  0  0  1  0  0  0  0  0999 V2000
    4.1940    5.5360   17.5530 C   0  0  0  0  0  0  0  0  0  0  0  0
    3.8440    4.4570   18.3670 C   0  0  0  0  0  0  0  0  0  0  0  0
    2.9080    4.6300   19.3830 C   0  0  0  0  0  0  0  0  0  0  0  0
    2.5370    3.5460   20.1950 N   0  0  0  0  0  0  0  0  0  0  0  0
    1.9150    3.6660   21.4850 C   0  0  0  0  0  0  0  0  0  0  0  0
    2.3310    2.2100   21.7220 C   0  0  0  0  0  0  0  0  0  0  0  0
    3.3690    2.4590   20.6200 C   0  0  0  0  0  0  0  0  0  0  0  0
    2.3190    5.8270   19.6000 N   0  0  0  0  0  0  0  0  0  0  0  0
    2.6510    6.8990   18.8320 C   0  0  0  0  0  0  0  0  0  0  0  0
    3.5930    6.7760   17.8110 C   0  0  0  0  0  0  0  0  0  0  0  0
    3.9750    7.8080   17.0510 F   0  0  0  0  0  0  0  0  0  0  0  0
    4.2900    3.4800   18.2170 H   0  0  0  0  0  0  0  0  0  0  0  0
    2.4080    4.3990   22.1300 H   0  0  0  0  0  0  0  0  0  0  0  0
    0.8400    3.8530   21.4340 H   0  0  0  0  0  0  0  0  0  0  0  0
    1.5630    1.4740   21.4600 H   0  0  0  0  0  0  0  0  0  0  0  0
    2.7320    1.9850   22.7130 H   0  0  0  0  0  0  0  0  0  0  0  0
    4.3530    2.7850   20.9740 H   0  0  0  0  0  0  0  0  0  0  0  0
    3.4670    1.6650   19.8770 H   0  0  0  0  0  0  0  0  0  0  0  0
    1.9770    8.0980   19.1600 N   0  0  0  0  0  0  0  0  0  0  0  0
    1.3920    8.2300   20.4880 C   0  0  0  0  0  0  0  0  0  0  0  0
    0.7580    9.5830   20.4490 C   0  0  0  0  0  0  0  0  0  0  0  0
    0.9770   10.1600   19.2020 C   0  0  0  0  0  0  0  0  0  0  0  0
    0.5000   11.4140   18.8700 C   0  0  0  0  0  0  0  0  0  0  0  0
   -0.2260   12.1070   19.8380 C   0  0  0  0  0  0  0  0  0  0  0  0
   -0.4550   11.5360   21.1050 C   0  0  0  0  0  0  0  0  0  0  0  0
    0.0360   10.2570   21.4300 C   0  0  0  0  0  0  0  0  0  0  0  0
    1.7550    9.2210   18.3760 C   0  0  0  0  0  0  0  0  0  0  0  0
    2.0760    9.5000   17.2390 O   0  0  0  0  0  0  0  0  0  0  0  0
    2.1800    8.1900   21.2480 H   0  0  0  0  0  0  0  0  0  0  0  0
    0.6360    7.4520   20.6420 H   0  0  0  0  0  0  0  0  0  0  0  0
    0.6870   11.8400   17.8880 H   0  0  0  0  0  0  0  0  0  0  0  0
   -0.6180   13.0970   19.6130 H   0  0  0  0  0  0  0  0  0  0  0  0
   -1.0270   12.1050   21.8390 H   0  0  0  0  0  0  0  0  0  0  0  0
   -0.2040    9.6370   22.7800 C   0  0  0  0  0  0  0  0  0  0  0  0
   -0.9030    8.4710   22.6940 F   0  0  0  0  0  0  0  0  0  0  0  0
   -0.9310   10.4470   23.5980 F   0  0  0  0  0  0  0  0  0  0  0  0
    0.9360    9.3410   23.4590 F   0  0  0  0  0  0  0  0  0  0  0  0
    5.2310    5.4360   16.4440 C   0  0  2  0  0  0  0  0  0  0  0  0
    5.2320    6.3970   15.9110 H   0  0  0  0  0  0  0  0  0  0  0  0
    4.8860    4.3830   15.3790 C   0  0  0  0  0  0  0  0  0  0  0  0
    4.3270    3.5520   15.8220 H   0  0  0  0  0  0  0  0  0  0  0  0
    5.7940    3.9670   14.9310 H   0  0  0  0  0  0  0  0  0  0  0  0
    4.2710    4.7980   14.5740 H   0  0  0  0  0  0  0  0  0  0  0  0
    6.6210    5.1970   17.0650 C   0  0  0  0  0  0  0  0  0  0  0  0
    6.5550    4.4960   17.9060 H   0  0  0  0  0  0  0  0  0  0  0  0
    7.2790    4.7160   16.3310 H   0  0  0  0  0  0  0  0  0  0  0  0
    7.2560    6.4580   17.5400 C   0  0  0  0  0  0  0  0  0  0  0  0
    7.2570    7.6150   16.9090 N   0  0  0  0  0  0  0  0  0  0  0  0
    7.9560    8.5180   17.6730 N   0  0  0  0  0  0  0  0  0  0  0  0
    8.3690    7.8930   18.7510 C   0  0  0  0  0  0  0  0  0  0  0  0
    7.9490    6.5990   18.7150 N   0  0  0  0  0  0  0  0  0  0  0  0
    8.9510    8.3230   19.5550 H   0  0  0  0  0  0  0  0  0  0  0  0
    8.1860    5.6010   19.7250 C   0  0  0  0  0  0  0  0  0  0  0  0
    9.2630    5.5090   19.8880 H   0  0  0  0  0  0  0  0  0  0  0  0
    7.7640    4.6540   19.3830 H   0  0  0  0  0  0  0  0  0  0  0  0
    7.7020    5.9050   20.6570 H   0  0  0  0  0  0  0  0  0  0  0  0
  1 10  2  0  0  0  0
  1  2  1  0  0  0  0
  2  3  2  0  0  0  0
  3  8  1  0  0  0  0
  3  4  1  0  0  0  0
  4  7  1  0  0  0  0
  4  5  1  0  0  0  0
  5  6  1  0  0  0  0
  5 13  1  0  0  0  0
  6 16  1  0  0  0  0
  7 17  1  0  0  0  0
  7  6  1  0  0  0  0
  9 19  1  0  0  0  0
  9  8  2  0  0  0  0
 10  9  1  0  0  0  0
 11 10  1  0  0  0  0
 12  2  1  0  0  0  0
 14  5  1  0  0  0  0
 15  6  1  0  0  0  0
 18  7  1  0  0  0  0
 19 20  1  0  0  0  0
 20 30  1  0  0  0  0
 20 29  1  0  0  0  0
 21 20  1  0  0  0  0
 21 26  1  0  0  0  0
 22 21  2  0  0  0  0
 23 22  1  0  0  0  0
 23 24  2  0  0  0  0
 24 25  1  0  0  0  0
 25 26  2  0  0  0  0
 25 33  1  0  0  0  0
 26 34  1  0  0  0  0
 27 19  1  0  0  0  0
 27 22  1  0  0  0  0
 28 27  2  0  0  0  0
 31 23  1  0  0  0  0
 32 24  1  0  0  0  0
 34 37  1  0  0  0  0
 34 36  1  0  0  0  0
 35 34  1  0  0  0  0
 38 39  1  6  0  0  0
 38 44  1  0  0  0  0
 38  1  1  0  0  0  0
 40 41  1  0  0  0  0
 40 38  1  0  0  0  0
 42 40  1  0  0  0  0
 43 40  1  0  0  0  0
 44 47  1  0  0  0  0
 44 45  1  0  0  0  0
 46 44  1  0  0  0  0
 47 51  1  0  0  0  0
 48 47  2  0  0  0  0
 48 49  1  0  0  0  0
 49 50  2  0  0  0  0
 50 52  1  0  0  0  0
 51 50  1  0  0  0  0
 51 53  1  0  0  0  0
 53 54  1  0  0  0  0
 53 56  1  0  0  0  0
 55 53  1  0  0  0  0
M  END
>  <MODEL>
1

>  <REMARK>
 VINA RESULT:    -9.549      0.000      0.000
 INTER + INTRA:         -12.994
 INTER:                 -12.178
 INTRA:                  -0.817
 UNBOUND:                -0.097
  Name = 
  7 active torsions:
  status: ('A' for Active; 'I' for Inactive)
    1  A    between atoms: C_1  and  C_2
    2  A    between atoms: C_2  and  C_3
    3  A    between atoms: C_2  and  C_10
    4  A    between atoms: C_3  and  C_4
    5  A    between atoms: N_8  and  C_9
    6  A    between atoms: C_18  and  N_19
    7  A    between atoms: C_26  and  C_27
                            x       y       z     vdW  Elec       q    Type
                         _______ _______ _______ _____ _____    ______ ____

>  <TORSDO>
F 7

$$$$
=
 OpenBabel07192307433D

 56 60  0  0  1  0  0  0  0  0999 V2000
    4.6670    5.4530   17.4970 C   0  0  0  0  0  0  0  0  0  0  0  0
    3.9170    4.2980   17.7310 C   0  0  0  0  0  0  0  0  0  0  0  0
    2.6550    4.3980   18.3090 C   0  0  0  0  0  0  0  0  0  0  0  0
    1.8860    3.2440   18.5320 N   0  0  0  0  0  0  0  0  0  0  0  0
    0.7860    3.1590   19.4520 C   0  0  0  0  0  0  0  0  0  0  0  0
    0.9410    1.6370   19.3590 C   0  0  0  0  0  0  0  0  0  0  0  0
    2.3670    1.9380   18.8780 C   0  0  0  0  0  0  0  0  0  0  0  0
    2.1290    5.5960   18.6480 N   0  0  0  0  0  0  0  0  0  0  0  0
    2.8430    6.7360   18.4450 C   0  0  0  0  0  0  0  0  0  0  0  0
    4.1170    6.6840   17.8800 C   0  0  0  0  0  0  0  0  0  0  0  0
    4.8690    7.7730   17.6910 F   0  0  0  0  0  0  0  0  0  0  0  0
    4.3040    3.3210   17.4640 H   0  0  0  0  0  0  0  0  0  0  0  0
    1.0140    3.5890   20.4320 H   0  0  0  0  0  0  0  0  0  0  0  0
   -0.1460    3.5690   19.0540 H   0  0  0  0  0  0  0  0  0  0  0  0
    0.3010    1.1640   18.6070 H   0  0  0  0  0  0  0  0  0  0  0  0
    0.8610    1.0930   20.3040 H   0  0  0  0  0  0  0  0  0  0  0  0
    3.1280    1.9570   19.6650 H   0  0  0  0  0  0  0  0  0  0  0  0
    2.7080    1.3540   18.0200 H   0  0  0  0  0  0  0  0  0  0  0  0
    2.1920    7.9240   18.8490 N   0  0  0  0  0  0  0  0  0  0  0  0
    1.5920    7.9770   20.1750 C   0  0  0  0  0  0  0  0  0  0  0  0
    0.9910    9.3460   20.2230 C   0  0  0  0  0  0  0  0  0  0  0  0
    1.2410   10.0020   19.0220 C   0  0  0  0  0  0  0  0  0  0  0  0
    0.7980   11.2880   18.7730 C   0  0  0  0  0  0  0  0  0  0  0  0
    0.0750   11.9290   19.7790 C   0  0  0  0  0  0  0  0  0  0  0  0
   -0.1860   11.2760   21.0000 C   0  0  0  0  0  0  0  0  0  0  0  0
    0.2710    9.9670   21.2410 C   0  0  0  0  0  0  0  0  0  0  0  0
    2.0070    9.1050   18.1430 C   0  0  0  0  0  0  0  0  0  0  0  0
    2.3510    9.4540   17.0310 O   0  0  0  0  0  0  0  0  0  0  0  0
    2.3680    7.8660   20.9400 H   0  0  0  0  0  0  0  0  0  0  0  0
    0.8170    7.2090   20.2640 H   0  0  0  0  0  0  0  0  0  0  0  0
    1.0090   11.7760   17.8260 H   0  0  0  0  0  0  0  0  0  0  0  0
   -0.2910   12.9420   19.6190 H   0  0  0  0  0  0  0  0  0  0  0  0
   -0.7540   11.8060   21.7650 H   0  0  0  0  0  0  0  0  0  0  0  0
   -0.0020    9.2600   22.5410 C   0  0  0  0  0  0  0  0  0  0  0  0
   -0.7390    8.1270   22.3650 F   0  0  0  0  0  0  0  0  0  0  0  0
   -0.7090   10.0330   23.4100 F   0  0  0  0  0  0  0  0  0  0  0  0
    1.1220    8.8770   23.2040 F   0  0  0  0  0  0  0  0  0  0  0  0
    6.0660    5.4260   16.8990 C   0  0  2  0  0  0  0  0  0  0  0  0
    6.3740    4.3730   16.8340 H   0  0  0  0  0  0  0  0  0  0  0  0
    7.1230    6.1010   17.7870 C   0  0  0  0  0  0  0  0  0  0  0  0
    7.1330    7.1840   17.6240 H   0  0  0  0  0  0  0  0  0  0  0  0
    8.1260    5.7260   17.5590 H   0  0  0  0  0  0  0  0  0  0  0  0
    6.9330    5.9330   18.8520 H   0  0  0  0  0  0  0  0  0  0  0  0
    6.0270    6.0320   15.4830 C   0  0  0  0  0  0  0  0  0  0  0  0
    5.1540    6.6850   15.3640 H   0  0  0  0  0  0  0  0  0  0  0  0
    6.9000    6.6790   15.3300 H   0  0  0  0  0  0  0  0  0  0  0  0
    5.9980    4.9910   14.4190 C   0  0  0  0  0  0  0  0  0  0  0  0
    5.0540    4.0900   14.2370 N   0  0  0  0  0  0  0  0  0  0  0  0
    5.4060    3.3130   13.1600 N   0  0  0  0  0  0  0  0  0  0  0  0
    6.5590    3.7530   12.7100 C   0  0  0  0  0  0  0  0  0  0  0  0
    6.9670    4.8090   13.4660 N   0  0  0  0  0  0  0  0  0  0  0  0
    7.1110    3.3540   11.8700 H   0  0  0  0  0  0  0  0  0  0  0  0
    8.1720    5.5740   13.2740 C   0  0  0  0  0  0  0  0  0  0  0  0
    8.9820    4.8960   12.9970 H   0  0  0  0  0  0  0  0  0  0  0  0
    8.4050    6.0940   14.2050 H   0  0  0  0  0  0  0  0  0  0  0  0
    8.0170    6.3020   12.4740 H   0  0  0  0  0  0  0  0  0  0  0  0
  1  2  2  0  0  0  0
  1 10  1  0  0  0  0
  2  3  1  0  0  0  0
  3  4  1  0  0  0  0
  3  8  2  0  0  0  0
  4  7  1  0  0  0  0
  4  5  1  0  0  0  0
  5 13  1  0  0  0  0
  6  5  1  0  0  0  0
  6 16  1  0  0  0  0
  7  6  1  0  0  0  0
  7 17  1  0  0  0  0
  9  8  1  0  0  0  0
  9 19  1  0  0  0  0
 10  9  2  0  0  0  0
 11 10  1  0  0  0  0
 12  2  1  0  0  0  0
 14  5  1  0  0  0  0
 15  6  1  0  0  0  0
 18  7  1  0  0  0  0
 19 20  1  0  0  0  0
 20 21  1  0  0  0  0
 20 30  1  0  0  0  0
 20 29  1  0  0  0  0
 21 26  1  0  0  0  0
 22 21  2  0  0  0  0
 23 22  1  0  0  0  0
 23 24  2  0  0  0  0
 24 25  1  0  0  0  0
 25 26  2  0  0  0  0
 25 33  1  0  0  0  0
 26 34  1  0  0  0  0
 27 19  1  0  0  0  0
 27 22  1  0  0  0  0
 28 27  2  0  0  0  0
 31 23  1  0  0  0  0
 32 24  1  0  0  0  0
 34 37  1  0  0  0  0
 34 36  1  0  0  0  0
 35 34  1  0  0  0  0
 38 39  1  6  0  0  0
 38  1  1  0  0  0  0
 38 40  1  0  0  0  0
 40 43  1  0  0  0  0
 41 40  1  0  0  0  0
 42 40  1  0  0  0  0
 44 38  1  0  0  0  0
 45 44  1  0  0  0  0
 46 44  1  0  0  0  0
 47 44  1  0  0  0  0
 48 47  2  0  0  0  0
 49 48  1  0  0  0  0
 50 49  2  0  0  0  0
 50 51  1  0  0  0  0
 51 47  1  0  0  0  0
 52 50  1  0  0  0  0
 53 51  1  0  0  0  0
 53 55  1  0  0  0  0
 54 53  1  0  0  0  0
 56 53  1  0  0  0  0
M  END
>  <MODEL>
2

>  <REMARK>
 VINA RESULT:    -8.053      2.033      2.811
 INTER + INTRA:         -10.975
 INTER:                 -10.120
 INTRA:                  -0.855
 UNBOUND:                -0.097
  Name = 
  7 active torsions:
  status: ('A' for Active; 'I' for Inactive)
    1  A    between atoms: C_1  and  C_2
    2  A    between atoms: C_2  and  C_3
    3  A    between atoms: C_2  and  C_10
    4  A    between atoms: C_3  and  C_4
    5  A    between atoms: N_8  and  C_9
    6  A    between atoms: C_18  and  N_19
    7  A    between atoms: C_26  and  C_27
                            x       y       z     vdW  Elec       q    Type
                         _______ _______ _______ _____ _____    ______ ____

>  <TORSDO>
F 7

$$$$
=
 OpenBabel07192307433D

 56 60  0  0  1  0  0  0  0  0999 V2000
   -0.3950   11.1570   20.7930 C   0  0  0  0  0  0  0  0  0  0  0  0
   -1.4360   11.2410   19.8660 C   0  0  0  0  0  0  0  0  0  0  0  0
   -1.4530   10.3890   18.7650 C   0  0  0  0  0  0  0  0  0  0  0  0
   -2.5040   10.4550   17.8360 N   0  0  0  0  0  0  0  0  0  0  0  0
   -2.4450    9.9400   16.4960 C   0  0  0  0  0  0  0  0  0  0  0  0
   -3.6660   10.8180   16.2000 C   0  0  0  0  0  0  0  0  0  0  0  0
   -3.2270   11.6240   17.4290 C   0  0  0  0  0  0  0  0  0  0  0  0
   -0.4810    9.4690   18.5720 N   0  0  0  0  0  0  0  0  0  0  0  0
    0.5510    9.3740   19.4520 C   0  0  0  0  0  0  0  0  0  0  0  0
    0.6170   10.2150   20.5630 C   0  0  0  0  0  0  0  0  0  0  0  0
    1.6290   10.1810   21.4370 F   0  0  0  0  0  0  0  0  0  0  0  0
   -2.2360   11.9620   19.9920 H   0  0  0  0  0  0  0  0  0  0  0  0
   -1.5300   10.2250   15.9690 H   0  0  0  0  0  0  0  0  0  0  0  0
   -2.6080    8.8610   16.4370 H   0  0  0  0  0  0  0  0  0  0  0  0
   -4.6270   10.3060   16.3150 H   0  0  0  0  0  0  0  0  0  0  0  0
   -3.6460   11.3530   15.2470 H   0  0  0  0  0  0  0  0  0  0  0  0
   -2.5750   12.4780   17.2160 H   0  0  0  0  0  0  0  0  0  0  0  0
   -4.0260   11.9070   18.1170 H   0  0  0  0  0  0  0  0  0  0  0  0
    1.5090    8.3820   19.1400 N   0  0  0  0  0  0  0  0  0  0  0  0
    1.4770    7.1220   19.8710 C   0  0  0  0  0  0  0  0  0  0  0  0
    2.6300    6.3640   19.2950 C   0  0  0  0  0  0  0  0  0  0  0  0
    3.2500    7.1370   18.3190 C   0  0  0  0  0  0  0  0  0  0  0  0
    4.3550    6.6970   17.6140 C   0  0  0  0  0  0  0  0  0  0  0  0
    4.8480    5.4270   17.9130 C   0  0  0  0  0  0  0  0  0  0  0  0
    4.2300    4.6330   18.8980 C   0  0  0  0  0  0  0  0  0  0  0  0
    3.1050    5.0930   19.6090 C   0  0  0  0  0  0  0  0  0  0  0  0
    2.5410    8.4230   18.2120 C   0  0  0  0  0  0  0  0  0  0  0  0
    2.8950    9.2740   17.4210 O   0  0  0  0  0  0  0  0  0  0  0  0
    0.5320    6.6030   19.6760 H   0  0  0  0  0  0  0  0  0  0  0  0
    1.6290    7.3080   20.9400 H   0  0  0  0  0  0  0  0  0  0  0  0
    4.8180    7.3220   16.8570 H   0  0  0  0  0  0  0  0  0  0  0  0
    5.7170    5.0450   17.3790 H   0  0  0  0  0  0  0  0  0  0  0  0
    4.6410    3.6440   19.1070 H   0  0  0  0  0  0  0  0  0  0  0  0
    2.4370    4.2540   20.6650 C   0  0  0  0  0  0  0  0  0  0  0  0
    3.0280    3.0350   20.8030 F   0  0  0  0  0  0  0  0  0  0  0  0
    1.1310    4.0040   20.3750 F   0  0  0  0  0  0  0  0  0  0  0  0
    2.4490    4.8180   21.9020 F   0  0  0  0  0  0  0  0  0  0  0  0
   -0.2870   12.0730   22.0030 C   0  0  2  0  0  0  0  0  0  0  0  0
    0.6220   11.7870   22.5500 H   0  0  0  0  0  0  0  0  0  0  0  0
   -1.4360   11.8940   23.0080 C   0  0  0  0  0  0  0  0  0  0  0  0
   -1.9620   12.8410   23.1690 H   0  0  0  0  0  0  0  0  0  0  0  0
   -1.0590   11.5590   23.9800 H   0  0  0  0  0  0  0  0  0  0  0  0
   -2.1750   11.1640   22.6620 H   0  0  0  0  0  0  0  0  0  0  0  0
   -0.1560   13.5330   21.5280 C   0  0  0  0  0  0  0  0  0  0  0  0
   -1.0630   13.8530   21.0010 H   0  0  0  0  0  0  0  0  0  0  0  0
   -0.0680   14.2010   22.3940 H   0  0  0  0  0  0  0  0  0  0  0  0
    1.0170   13.7360   20.6330 C   0  0  0  0  0  0  0  0  0  0  0  0
    2.2830   13.5560   20.9550 N   0  0  0  0  0  0  0  0  0  0  0  0
    3.0500   13.8590   19.8560 N   0  0  0  0  0  0  0  0  0  0  0  0
    2.2380   14.2220   18.8900 C   0  0  0  0  0  0  0  0  0  0  0  0
    0.9520   14.1550   19.3290 N   0  0  0  0  0  0  0  0  0  0  0  0
    2.5280   14.5260   17.8930 H   0  0  0  0  0  0  0  0  0  0  0  0
   -0.2250   14.4560   18.5560 C   0  0  0  0  0  0  0  0  0  0  0  0
    0.0620   14.5920   17.5110 H   0  0  0  0  0  0  0  0  0  0  0  0
   -0.6790   15.3660   18.9540 H   0  0  0  0  0  0  0  0  0  0  0  0
   -0.9330   13.6270   18.6340 H   0  0  0  0  0  0  0  0  0  0  0  0
  1 38  1  0  0  0  0
  2 12  1  0  0  0  0
  2  1  2  0  0  0  0
  3  2  1  0  0  0  0
  4  3  1  0  0  0  0
  5  4  1  0  0  0  0
  6 15  1  0  0  0  0
  6  5  1  0  0  0  0
  6  7  1  0  0  0  0
  7  4  1  0  0  0  0
  7 18  1  0  0  0  0
  8  3  2  0  0  0  0
  8  9  1  0  0  0  0
  9 10  2  0  0  0  0
 10  1  1  0  0  0  0
 10 11  1  0  0  0  0
 13  5  1  0  0  0  0
 14  5  1  0  0  0  0
 16  6  1  0  0  0  0
 17  7  1  0  0  0  0
 19  9  1  0  0  0  0
 19 20  1  0  0  0  0
 20 30  1  0  0  0  0
 21 26  1  0  0  0  0
 21 20  1  0  0  0  0
 22 21  2  0  0  0  0
 23 24  2  0  0  0  0
 23 22  1  0  0  0  0
 24 25  1  0  0  0  0
 25 33  1  0  0  0  0
 25 26  2  0  0  0  0
 26 34  1  0  0  0  0
 27 22  1  0  0  0  0
 27 19  1  0  0  0  0
 28 27  2  0  0  0  0
 29 20  1  0  0  0  0
 31 23  1  0  0  0  0
 32 24  1  0  0  0  0
 34 35  1  0  0  0  0
 34 37  1  0  0  0  0
 36 34  1  0  0  0  0
 38 39  1  1  0  0  0
 38 40  1  0  0  0  0
 40 41  1  0  0  0  0
 40 42  1  0  0  0  0
 43 40  1  0  0  0  0
 44 38  1  0  0  0  0
 44 46  1  0  0  0  0
 45 44  1  0  0  0  0
 47 48  2  0  0  0  0
 47 44  1  0  0  0  0
 49 48  1  0  0  0  0
 50 51  1  0  0  0  0
 50 49  2  0  0  0  0
 51 47  1  0  0  0  0
 52 50  1  0  0  0  0
 53 56  1  0  0  0  0
 53 55  1  0  0  0  0
 53 51  1  0  0  0  0
 54 53  1  0  0  0  0
M  END
>  <MODEL>
3

>  <REMARK>
 VINA RESULT:    -7.998      3.186      7.897
 INTER + INTRA:         -10.899
 INTER:                  -9.351
 INTRA:                  -1.548
 UNBOUND:                -0.097
  Name = 
  7 active torsions:
  status: ('A' for Active; 'I' for Inactive)
    1  A    between atoms: C_1  and  C_2
    2  A    between atoms: C_2  and  C_3
    3  A    between atoms: C_2  and  C_10
    4  A    between atoms: C_3  and  C_4
    5  A    between atoms: N_8  and  C_9
    6  A    between atoms: C_18  and  N_19
    7  A    between atoms: C_26  and  C_27
                            x       y       z     vdW  Elec       q    Type
                         _______ _______ _______ _____ _____    ______ ____

>  <TORSDO>
F 7

$$$$
=
 OpenBabel07192307433D

 56 60  0  0  1  0  0  0  0  0999 V2000
   -0.9520   11.6350   19.1640 C   0  0  0  0  0  0  0  0  0  0  0  0
   -0.1030   12.6750   18.7800 C   0  0  0  0  0  0  0  0  0  0  0  0
    1.2450   12.4170   18.5440 C   0  0  0  0  0  0  0  0  0  0  0  0
    2.1030   13.4530   18.1410 N   0  0  0  0  0  0  0  0  0  0  0  0
    3.5350   13.4190   18.2520 C   0  0  0  0  0  0  0  0  0  0  0  0
    3.4970   14.9410   18.0720 C   0  0  0  0  0  0  0  0  0  0  0  0
    2.0370   14.8320   18.5310 C   0  0  0  0  0  0  0  0  0  0  0  0
    1.7570   11.1720   18.6720 N   0  0  0  0  0  0  0  0  0  0  0  0
    0.9550   10.1430   19.0570 C   0  0  0  0  0  0  0  0  0  0  0  0
   -0.3980   10.3560   19.3170 C   0  0  0  0  0  0  0  0  0  0  0  0
   -1.2170    9.3820   19.7290 F   0  0  0  0  0  0  0  0  0  0  0  0
   -0.4790   13.6840   18.6600 H   0  0  0  0  0  0  0  0  0  0  0  0
    3.8800   13.0770   19.2320 H   0  0  0  0  0  0  0  0  0  0  0  0
    4.0200   12.8560   17.4500 H   0  0  0  0  0  0  0  0  0  0  0  0
    3.6210   15.2750   17.0360 H   0  0  0  0  0  0  0  0  0  0  0  0
    4.1600   15.5130   18.7250 H   0  0  0  0  0  0  0  0  0  0  0  0
    1.8760   14.9660   19.6060 H   0  0  0  0  0  0  0  0  0  0  0  0
    1.3170   15.4160   17.9540 H   0  0  0  0  0  0  0  0  0  0  0  0
    1.6060    8.8920   19.1660 N   0  0  0  0  0  0  0  0  0  0  0  0
    2.5580    8.5070   18.1320 C   0  0  0  0  0  0  0  0  0  0  0  0
    3.0020    7.1470   18.5670 C   0  0  0  0  0  0  0  0  0  0  0  0
    2.3530    6.8060   19.7490 C   0  0  0  0  0  0  0  0  0  0  0  0
    2.5610    5.5970   20.3880 C   0  0  0  0  0  0  0  0  0  0  0  0
    3.4580    4.7030   19.8040 C   0  0  0  0  0  0  0  0  0  0  0  0
    4.1220    5.0360   18.6080 C   0  0  0  0  0  0  0  0  0  0  0  0
    3.9020    6.2700   17.9670 C   0  0  0  0  0  0  0  0  0  0  0  0
    1.4640    7.9120   20.1390 C   0  0  0  0  0  0  0  0  0  0  0  0
    0.7870    7.8530   21.1450 O   0  0  0  0  0  0  0  0  0  0  0  0
    3.4000    9.2070   18.1220 H   0  0  0  0  0  0  0  0  0  0  0  0
    2.0540    8.4590   17.1610 H   0  0  0  0  0  0  0  0  0  0  0  0
    2.0400    5.3580   21.3110 H   0  0  0  0  0  0  0  0  0  0  0  0
    3.6470    3.7410   20.2770 H   0  0  0  0  0  0  0  0  0  0  0  0
    4.8180    4.3140   18.1780 H   0  0  0  0  0  0  0  0  0  0  0  0
    4.6050    6.6350   16.6880 C   0  0  0  0  0  0  0  0  0  0  0  0
    4.9780    5.5360   15.9740 F   0  0  0  0  0  0  0  0  0  0  0  0
    5.7480    7.3400   16.9110 F   0  0  0  0  0  0  0  0  0  0  0  0
    3.8530    7.3920   15.8450 F   0  0  0  0  0  0  0  0  0  0  0  0
   -2.4280   11.8400   19.4710 C   0  0  2  0  0  0  0  0  0  0  0  0
   -2.7630   10.9730   20.0560 H   0  0  0  0  0  0  0  0  0  0  0  0
   -3.3160   11.8490   18.2170 C   0  0  0  0  0  0  0  0  0  0  0  0
   -3.2660   12.8200   17.7130 H   0  0  0  0  0  0  0  0  0  0  0  0
   -4.3640   11.6690   18.4780 H   0  0  0  0  0  0  0  0  0  0  0  0
   -3.0130   11.0870   17.4920 H   0  0  0  0  0  0  0  0  0  0  0  0
   -2.6000   13.1190   20.3120 C   0  0  0  0  0  0  0  0  0  0  0  0
   -1.6440   13.6460   20.4190 H   0  0  0  0  0  0  0  0  0  0  0  0
   -3.2660   13.8200   19.7930 H   0  0  0  0  0  0  0  0  0  0  0  0
   -3.1490   12.8380   21.6680 C   0  0  0  0  0  0  0  0  0  0  0  0
   -4.3980   13.0040   22.0530 N   0  0  0  0  0  0  0  0  0  0  0  0
   -4.4900   12.6420   23.3750 N   0  0  0  0  0  0  0  0  0  0  0  0
   -3.2950   12.2670   23.7700 C   0  0  0  0  0  0  0  0  0  0  0  0
   -2.4210   12.3680   22.7320 N   0  0  0  0  0  0  0  0  0  0  0  0
   -3.0280   11.9250   24.7610 H   0  0  0  0  0  0  0  0  0  0  0  0
   -1.0220   12.0300   22.7640 C   0  0  0  0  0  0  0  0  0  0  0  0
   -0.5460   12.5660   23.5890 H   0  0  0  0  0  0  0  0  0  0  0  0
   -0.5740   12.3130   21.8090 H   0  0  0  0  0  0  0  0  0  0  0  0
   -0.9120   10.9530   22.9180 H   0  0  0  0  0  0  0  0  0  0  0  0
  1 10  1  0  0  0  0
  1 38  1  0  0  0  0
  2  1  2  0  0  0  0
  3  8  2  0  0  0  0
  3  2  1  0  0  0  0
  4  5  1  0  0  0  0
  4  7  1  0  0  0  0
  4  3  1  0  0  0  0
  5 13  1  0  0  0  0
  6  5  1  0  0  0  0
  6  7  1  0  0  0  0
  6 16  1  0  0  0  0
  7 17  1  0  0  0  0
  8  9  1  0  0  0  0
  9 19  1  0  0  0  0
  9 10  2  0  0  0  0
 10 11  1  0  0  0  0
 12  2  1  0  0  0  0
 14  5  1  0  0  0  0
 15  6  1  0  0  0  0
 18  7  1  0  0  0  0
 19 27  1  0  0  0  0
 20 21  1  0  0  0  0
 20 19  1  0  0  0  0
 21 22  1  0  0  0  0
 22 27  1  0  0  0  0
 22 23  2  0  0  0  0
 23 31  1  0  0  0  0
 24 32  1  0  0  0  0
 24 23  1  0  0  0  0
 25 24  2  0  0  0  0
 26 21  2  0  0  0  0
 26 25  1  0  0  0  0
 27 28  2  0  0  0  0
 29 20  1  0  0  0  0
 30 20  1  0  0  0  0
 33 25  1  0  0  0  0
 34 36  1  0  0  0  0
 34 26  1  0  0  0  0
 35 34  1  0  0  0  0
 37 34  1  0  0  0  0
 38 39  1  1  0  0  0
 38 44  1  0  0  0  0
 40 42  1  0  0  0  0
 40 38  1  0  0  0  0
 41 40  1  0  0  0  0
 43 40  1  0  0  0  0
 44 45  1  0  0  0  0
 44 47  1  0  0  0  0
 46 44  1  0  0  0  0
 47 48  2  0  0  0  0
 47 51  1  0  0  0  0
 48 49  1  0  0  0  0
 49 50  2  0  0  0  0
 50 52  1  0  0  0  0
 51 53  1  0  0  0  0
 51 50  1  0  0  0  0
 53 56  1  0  0  0  0
 53 54  1  0  0  0  0
 55 53  1  0  0  0  0
M  END
>  <MODEL>
4

>  <REMARK>
 VINA RESULT:    -7.997      3.439      9.255
 INTER + INTRA:         -10.898
 INTER:                  -9.972
 INTRA:                  -0.926
 UNBOUND:                -0.097
  Name = 
  7 active torsions:
  status: ('A' for Active; 'I' for Inactive)
    1  A    between atoms: C_1  and  C_2
    2  A    between atoms: C_2  and  C_3
    3  A    between atoms: C_2  and  C_10
    4  A    between atoms: C_3  and  C_4
    5  A    between atoms: N_8  and  C_9
    6  A    between atoms: C_18  and  N_19
    7  A    between atoms: C_26  and  C_27
                            x       y       z     vdW  Elec       q    Type
                         _______ _______ _______ _____ _____    ______ ____

>  <TORSDO>
F 7

$$$$
=
 OpenBabel07192307433D

 56 60  0  0  1  0  0  0  0  0999 V2000
    4.1930    6.0220   17.0990 C   0  0  0  0  0  0  0  0  0  0  0  0
    3.6390    4.7460   17.2180 C   0  0  0  0  0  0  0  0  0  0  0  0
    2.5440    4.5420   18.0520 C   0  0  0  0  0  0  0  0  0  0  0  0
    1.9690    3.2650   18.1650 N   0  0  0  0  0  0  0  0  0  0  0  0
    1.1290    2.8400   19.2500 C   0  0  0  0  0  0  0  0  0  0  0  0
    1.4110    1.4050   18.7880 C   0  0  0  0  0  0  0  0  0  0  0  0
    2.6460    2.0030   18.1020 C   0  0  0  0  0  0  0  0  0  0  0  0
    1.9940    5.5580   18.7530 N   0  0  0  0  0  0  0  0  0  0  0  0
    2.5210    6.8090   18.6670 C   0  0  0  0  0  0  0  0  0  0  0  0
    3.6260    7.0580   17.8540 C   0  0  0  0  0  0  0  0  0  0  0  0
    4.2000    8.2640   17.7620 F   0  0  0  0  0  0  0  0  0  0  0  0
    4.0500    3.9080   16.6650 H   0  0  0  0  0  0  0  0  0  0  0  0
    1.5350    3.0980   20.2320 H   0  0  0  0  0  0  0  0  0  0  0  0
    0.0930    3.1760   19.1560 H   0  0  0  0  0  0  0  0  0  0  0  0
    0.6640    0.9990   18.0980 H   0  0  0  0  0  0  0  0  0  0  0  0
    1.6090    0.6810   19.5820 H   0  0  0  0  0  0  0  0  0  0  0  0
    3.5650    1.9800   18.6980 H   0  0  0  0  0  0  0  0  0  0  0  0
    2.8340    1.6560   17.0850 H   0  0  0  0  0  0  0  0  0  0  0  0
    1.8670    7.7860   19.4530 N   0  0  0  0  0  0  0  0  0  0  0  0
    1.5260    9.0630   18.8400 C   0  0  0  0  0  0  0  0  0  0  0  0
    0.8910    9.8200   19.9620 C   0  0  0  0  0  0  0  0  0  0  0  0
    0.8750    9.0260   21.1040 C   0  0  0  0  0  0  0  0  0  0  0  0
    0.3510    9.4660   22.3060 C   0  0  0  0  0  0  0  0  0  0  0  0
   -0.1740   10.7570   22.3490 C   0  0  0  0  0  0  0  0  0  0  0  0
   -0.1640   11.5720   21.2010 C   0  0  0  0  0  0  0  0  0  0  0  0
    0.3720   11.1120   19.9830 C   0  0  0  0  0  0  0  0  0  0  0  0
    1.4920    7.7280   20.7880 C   0  0  0  0  0  0  0  0  0  0  0  0
    1.5940    6.8570   21.6280 O   0  0  0  0  0  0  0  0  0  0  0  0
    0.8140    8.9060   18.0230 H   0  0  0  0  0  0  0  0  0  0  0  0
    2.4360    9.5670   18.4980 H   0  0  0  0  0  0  0  0  0  0  0  0
    0.3520    8.8230   23.1820 H   0  0  0  0  0  0  0  0  0  0  0  0
   -0.5940   11.1380   23.2780 H   0  0  0  0  0  0  0  0  0  0  0  0
   -0.5830   12.5770   21.2690 H   0  0  0  0  0  0  0  0  0  0  0  0
    0.3880   11.9750   18.7490 C   0  0  0  0  0  0  0  0  0  0  0  0
    1.6350   12.0820   18.2130 F   0  0  0  0  0  0  0  0  0  0  0  0
   -0.0180   13.2480   19.0050 F   0  0  0  0  0  0  0  0  0  0  0  0
   -0.4120   11.5170   17.7500 F   0  0  0  0  0  0  0  0  0  0  0  0
    5.4090    6.3210   16.2340 C   0  0  2  0  0  0  0  0  0  0  0  0
    5.4540    7.4100   16.0980 H   0  0  0  0  0  0  0  0  0  0  0  0
    5.3050    5.7410   14.8150 C   0  0  0  0  0  0  0  0  0  0  0  0
    5.3170    4.6460   14.8410 H   0  0  0  0  0  0  0  0  0  0  0  0
    6.1500    6.0630   14.1970 H   0  0  0  0  0  0  0  0  0  0  0  0
    4.3830    6.0470   14.3120 H   0  0  0  0  0  0  0  0  0  0  0  0
    6.6820    5.8460   16.9620 C   0  0  0  0  0  0  0  0  0  0  0  0
    6.4380    5.0880   17.7160 H   0  0  0  0  0  0  0  0  0  0  0  0
    7.3540    5.3480   16.2520 H   0  0  0  0  0  0  0  0  0  0  0  0
    7.4100    6.9650   17.6220 C   0  0  0  0  0  0  0  0  0  0  0  0
    7.5120    8.2000   17.1740 N   0  0  0  0  0  0  0  0  0  0  0  0
    8.2710    8.9180   18.0660 N   0  0  0  0  0  0  0  0  0  0  0  0
    8.6190    8.1050   19.0380 C   0  0  0  0  0  0  0  0  0  0  0  0
    8.0970    6.8700   18.8050 N   0  0  0  0  0  0  0  0  0  0  0  0
    9.2230    8.3610   19.8980 H   0  0  0  0  0  0  0  0  0  0  0  0
    8.2400    5.7150   19.6530 C   0  0  0  0  0  0  0  0  0  0  0  0
    7.2480    5.3600   19.9400 H   0  0  0  0  0  0  0  0  0  0  0  0
    8.8180    6.0000   20.5340 H   0  0  0  0  0  0  0  0  0  0  0  0
    8.7650    4.9270   19.1080 H   0  0  0  0  0  0  0  0  0  0  0  0
  1  2  2  0  0  0  0
  1 10  1  0  0  0  0
  2  3  1  0  0  0  0
  3  4  1  0  0  0  0
  3  8  2  0  0  0  0
  4  5  1  0  0  0  0
  5 13  1  0  0  0  0
  6  5  1  0  0  0  0
  6 16  1  0  0  0  0
  7  4  1  0  0  0  0
  7 17  1  0  0  0  0
  7  6  1  0  0  0  0
  9  8  1  0  0  0  0
  9 19  1  0  0  0  0
 10  9  2  0  0  0  0
 11 10  1  0  0  0  0
 12  2  1  0  0  0  0
 14  5  1  0  0  0  0
 15  6  1  0  0  0  0
 18  7  1  0  0  0  0
 19 27  1  0  0  0  0
 20 19  1  0  0  0  0
 20 21  1  0  0  0  0
 21 26  2  0  0  0  0
 21 22  1  0  0  0  0
 22 23  2  0  0  0  0
 23 24  1  0  0  0  0
 23 31  1  0  0  0  0
 24 32  1  0  0  0  0
 25 33  1  0  0  0  0
 25 24  2  0  0  0  0
 26 25  1  0  0  0  0
 27 22  1  0  0  0  0
 27 28  2  0  0  0  0
 29 20  1  0  0  0  0
 30 20  1  0  0  0  0
 34 36  1  0  0  0  0
 34 26  1  0  0  0  0
 35 34  1  0  0  0  0
 37 34  1  0  0  0  0
 38 39  1  6  0  0  0
 38 44  1  0  0  0  0
 38  1  1  0  0  0  0
 40 41  1  0  0  0  0
 40 38  1  0  0  0  0
 42 40  1  0  0  0  0
 43 40  1  0  0  0  0
 44 47  1  0  0  0  0
 44 45  1  0  0  0  0
 46 44  1  0  0  0  0
 47 51  1  0  0  0  0
 48 47  2  0  0  0  0
 48 49  1  0  0  0  0
 49 50  2  0  0  0  0
 50 52  1  0  0  0  0
 51 50  1  0  0  0  0
 51 53  1  0  0  0  0
 53 54  1  0  0  0  0
 53 55  1  0  0  0  0
 56 53  1  0  0  0  0
M  END
>  <MODEL>
5

>  <REMARK>
 VINA RESULT:    -7.944      2.220      2.654
 INTER + INTRA:         -10.827
 INTER:                  -9.655
 INTRA:                  -1.173
 UNBOUND:                -0.097
  Name = 
  7 active torsions:
  status: ('A' for Active; 'I' for Inactive)
    1  A    between atoms: C_1  and  C_2
    2  A    between atoms: C_2  and  C_3
    3  A    between atoms: C_2  and  C_10
    4  A    between atoms: C_3  and  C_4
    5  A    between atoms: N_8  and  C_9
    6  A    between atoms: C_18  and  N_19
    7  A    between atoms: C_26  and  C_27
                            x       y       z     vdW  Elec       q    Type
                         _______ _______ _______ _____ _____    ______ ____

>  <TORSDO>
F 7

$$$$
=
 OpenBabel07192307433D

 56 60  0  0  1  0  0  0  0  0999 V2000
    3.8980    6.7540   17.7080 C   0  0  0  0  0  0  0  0  0  0  0  0
    3.7150    5.5080   18.3110 C   0  0  0  0  0  0  0  0  0  0  0  0
    2.7540    5.3550   19.3060 C   0  0  0  0  0  0  0  0  0  0  0  0
    2.5500    4.1020   19.9060 N   0  0  0  0  0  0  0  0  0  0  0  0
    1.9060    3.8970   21.1730 C   0  0  0  0  0  0  0  0  0  0  0  0
    2.5440    2.5030   21.1720 C   0  0  0  0  0  0  0  0  0  0  0  0
    3.5400    3.0980   20.1680 C   0  0  0  0  0  0  0  0  0  0  0  0
    1.9810    6.3910   19.7030 N   0  0  0  0  0  0  0  0  0  0  0  0
    2.1470    7.6190   19.1430 C   0  0  0  0  0  0  0  0  0  0  0  0
    3.1060    7.8230   18.1510 C   0  0  0  0  0  0  0  0  0  0  0  0
    3.3280    9.0180   17.5940 F   0  0  0  0  0  0  0  0  0  0  0  0
    4.3110    4.6530   18.0120 H   0  0  0  0  0  0  0  0  0  0  0  0
    2.2710    4.5720   21.9530 H   0  0  0  0  0  0  0  0  0  0  0  0
    0.8150    3.9220   21.1160 H   0  0  0  0  0  0  0  0  0  0  0  0
    1.9040    1.7150   20.7600 H   0  0  0  0  0  0  0  0  0  0  0  0
    2.9660    2.1730   22.1250 H   0  0  0  0  0  0  0  0  0  0  0  0
    4.4560    3.5050   20.6090 H   0  0  0  0  0  0  0  0  0  0  0  0
    3.7690    2.4710   19.3040 H   0  0  0  0  0  0  0  0  0  0  0  0
    1.2890    8.6230   19.6470 N   0  0  0  0  0  0  0  0  0  0  0  0
    0.4290    9.3420   18.7160 C   0  0  0  0  0  0  0  0  0  0  0  0
   -0.2880   10.3150   19.5950 C   0  0  0  0  0  0  0  0  0  0  0  0
    0.1350   10.1480   20.9100 C   0  0  0  0  0  0  0  0  0  0  0  0
   -0.3530   10.9180   21.9500 C   0  0  0  0  0  0  0  0  0  0  0  0
   -1.3020   11.8920   21.6430 C   0  0  0  0  0  0  0  0  0  0  0  0
   -1.7400   12.0720   20.3160 C   0  0  0  0  0  0  0  0  0  0  0  0
   -1.2350   11.2820   19.2660 C   0  0  0  0  0  0  0  0  0  0  0  0
    1.1370    9.0710   20.9520 C   0  0  0  0  0  0  0  0  0  0  0  0
    1.6580    8.7350   21.9970 O   0  0  0  0  0  0  0  0  0  0  0  0
   -0.2760    8.6460   18.2480 H   0  0  0  0  0  0  0  0  0  0  0  0
    1.0400    9.8660   17.9730 H   0  0  0  0  0  0  0  0  0  0  0  0
   -0.0040   10.7650   22.9670 H   0  0  0  0  0  0  0  0  0  0  0  0
   -1.7090   12.5180   22.4350 H   0  0  0  0  0  0  0  0  0  0  0  0
   -2.4830   12.8430   20.1110 H   0  0  0  0  0  0  0  0  0  0  0  0
   -1.6940   11.4660   17.8450 C   0  0  0  0  0  0  0  0  0  0  0  0
   -1.0190   12.4650   17.2120 F   0  0  0  0  0  0  0  0  0  0  0  0
   -3.0120   11.8000   17.7680 F   0  0  0  0  0  0  0  0  0  0  0  0
   -1.5400   10.3590   17.0710 F   0  0  0  0  0  0  0  0  0  0  0  0
    4.9480    7.0110   16.6370 C   0  0  2  0  0  0  0  0  0  0  0  0
    5.1260    8.0950   16.6060 H   0  0  0  0  0  0  0  0  0  0  0  0
    4.4800    6.6380   15.2210 C   0  0  0  0  0  0  0  0  0  0  0  0
    5.2890    6.1620   14.6570 H   0  0  0  0  0  0  0  0  0  0  0  0
    4.1700    7.5280   14.6640 H   0  0  0  0  0  0  0  0  0  0  0  0
    3.6370    5.9390   15.2380 H   0  0  0  0  0  0  0  0  0  0  0  0
    6.2550    6.2920   17.0220 C   0  0  0  0  0  0  0  0  0  0  0  0
    6.0510    5.4410   17.6830 H   0  0  0  0  0  0  0  0  0  0  0  0
    6.7230    5.8630   16.1270 H   0  0  0  0  0  0  0  0  0  0  0  0
    7.2270    7.2000   17.6930 C   0  0  0  0  0  0  0  0  0  0  0  0
    7.4910    8.4460   17.3550 N   0  0  0  0  0  0  0  0  0  0  0  0
    8.4480    8.9280   18.2130 N   0  0  0  0  0  0  0  0  0  0  0  0
    8.7520    7.9660   19.0540 C   0  0  0  0  0  0  0  0  0  0  0  0
    8.0070    6.8640   18.7700 N   0  0  0  0  0  0  0  0  0  0  0  0
    9.4760    8.0240   19.8560 H   0  0  0  0  0  0  0  0  0  0  0  0
    8.0380    5.6120   19.4810 C   0  0  0  0  0  0  0  0  0  0  0  0
    8.5050    4.8550   18.8460 H   0  0  0  0  0  0  0  0  0  0  0  0
    7.0140    5.3290   19.7320 H   0  0  0  0  0  0  0  0  0  0  0  0
    8.6230    5.7290   20.3970 H   0  0  0  0  0  0  0  0  0  0  0  0
  1 10  2  0  0  0  0
  1  2  1  0  0  0  0
  2  3  2  0  0  0  0
  3  8  1  0  0  0  0
  3  4  1  0  0  0  0
  4  7  1  0  0  0  0
  4  5  1  0  0  0  0
  5 13  1  0  0  0  0
  6  5  1  0  0  0  0
  6 16  1  0  0  0  0
  7 17  1  0  0  0  0
  7  6  1  0  0  0  0
  9 19  1  0  0  0  0
  9  8  2  0  0  0  0
 10  9  1  0  0  0  0
 11 10  1  0  0  0  0
 12  2  1  0  0  0  0
 14  5  1  0  0  0  0
 15  6  1  0  0  0  0
 18  7  1  0  0  0  0
 19 27  1  0  0  0  0
 20 21  1  0  0  0  0
 20 19  1  0  0  0  0
 21 22  1  0  0  0  0
 22 27  1  0  0  0  0
 22 23  2  0  0  0  0
 23 31  1  0  0  0  0
 24 23  1  0  0  0  0
 24 32  1  0  0  0  0
 25 24  2  0  0  0  0
 26 21  2  0  0  0  0
 26 25  1  0  0  0  0
 27 28  2  0  0  0  0
 29 20  1  0  0  0  0
 30 20  1  0  0  0  0
 33 25  1  0  0  0  0
 34 26  1  0  0  0  0
 35 34  1  0  0  0  0
 36 34  1  0  0  0  0
 37 34  1  0  0  0  0
 38 39  1  1  0  0  0
 38 44  1  0  0  0  0
 38  1  1  0  0  0  0
 40 43  1  0  0  0  0
 40 38  1  0  0  0  0
 41 40  1  0  0  0  0
 42 40  1  0  0  0  0
 44 45  1  0  0  0  0
 44 47  1  0  0  0  0
 46 44  1  0  0  0  0
 47 51  1  0  0  0  0
 48 47  2  0  0  0  0
 48 49  1  0  0  0  0
 49 50  2  0  0  0  0
 50 52  1  0  0  0  0
 51 50  1  0  0  0  0
 51 53  1  0  0  0  0
 53 55  1  0  0  0  0
 53 56  1  0  0  0  0
 54 53  1  0  0  0  0
M  END
>  <MODEL>
6

>  <REMARK>
 VINA RESULT:    -7.716      2.291      2.729
 INTER + INTRA:         -10.519
 INTER:                  -9.596
 INTRA:                  -0.923
 UNBOUND:                -0.097
  Name = 
  7 active torsions:
  status: ('A' for Active; 'I' for Inactive)
    1  A    between atoms: C_1  and  C_2
    2  A    between atoms: C_2  and  C_3
    3  A    between atoms: C_2  and  C_10
    4  A    between atoms: C_3  and  C_4
    5  A    between atoms: N_8  and  C_9
    6  A    between atoms: C_18  and  N_19
    7  A    between atoms: C_26  and  C_27
                            x       y       z     vdW  Elec       q    Type
                         _______ _______ _______ _____ _____    ______ ____

>  <TORSDO>
F 7

$$$$
=
 OpenBabel07192307433D

 56 60  0  0  1  0  0  0  0  0999 V2000
   -0.6930   11.0150   20.6900 C   0  0  0  0  0  0  0  0  0  0  0  0
   -1.6720   11.1310   19.7010 C   0  0  0  0  0  0  0  0  0  0  0  0
   -1.5720   10.3750   18.5360 C   0  0  0  0  0  0  0  0  0  0  0  0
   -2.5600   10.4720   17.5430 N   0  0  0  0  0  0  0  0  0  0  0  0
   -2.3850   10.0760   16.1730 C   0  0  0  0  0  0  0  0  0  0  0  0
   -3.6260   10.9210   15.8630 C   0  0  0  0  0  0  0  0  0  0  0  0
   -3.3120   11.6390   17.1820 C   0  0  0  0  0  0  0  0  0  0  0  0
   -0.5450    9.5190   18.3380 N   0  0  0  0  0  0  0  0  0  0  0  0
    0.4300    9.3960   19.2790 C   0  0  0  0  0  0  0  0  0  0  0  0
    0.3790   10.1420   20.4560 C   0  0  0  0  0  0  0  0  0  0  0  0
    1.3290   10.0790   21.3950 F   0  0  0  0  0  0  0  0  0  0  0  0
   -2.5140   11.8020   19.8280 H   0  0  0  0  0  0  0  0  0  0  0  0
   -1.4520   10.4460   15.7370 H   0  0  0  0  0  0  0  0  0  0  0  0
   -2.4890    9.0000   16.0140 H   0  0  0  0  0  0  0  0  0  0  0  0
   -4.5660   10.3590   15.8670 H   0  0  0  0  0  0  0  0  0  0  0  0
   -3.5700   11.5350   14.9610 H   0  0  0  0  0  0  0  0  0  0  0  0
   -2.6920   12.5360   17.0870 H   0  0  0  0  0  0  0  0  0  0  0  0
   -4.1700   11.8260   17.8320 H   0  0  0  0  0  0  0  0  0  0  0  0
    1.4560    8.4780   18.9550 N   0  0  0  0  0  0  0  0  0  0  0  0
    1.4880    7.1940   19.6430 C   0  0  0  0  0  0  0  0  0  0  0  0
    2.6990    6.5300   19.0690 C   0  0  0  0  0  0  0  0  0  0  0  0
    3.2890    7.3750   18.1340 C   0  0  0  0  0  0  0  0  0  0  0  0
    4.4340    7.0290   17.4410 C   0  0  0  0  0  0  0  0  0  0  0  0
    5.0010    5.7830   17.7070 C   0  0  0  0  0  0  0  0  0  0  0  0
    4.4140    4.9180   18.6510 C   0  0  0  0  0  0  0  0  0  0  0  0
    3.2470    5.2810   19.3500 C   0  0  0  0  0  0  0  0  0  0  0  0
    2.5020    8.6160   18.0540 C   0  0  0  0  0  0  0  0  0  0  0  0
    2.8180    9.5150   17.3000 O   0  0  0  0  0  0  0  0  0  0  0  0
    0.5830    6.6230   19.4090 H   0  0  0  0  0  0  0  0  0  0  0  0
    1.6060    7.3510   20.7200 H   0  0  0  0  0  0  0  0  0  0  0  0
    4.8730    7.7090   16.7160 H   0  0  0  0  0  0  0  0  0  0  0  0
    5.9030    5.4770   17.1820 H   0  0  0  0  0  0  0  0  0  0  0  0
    4.8830    3.9510   18.8360 H   0  0  0  0  0  0  0  0  0  0  0  0
    2.6130    4.3650   20.3620 C   0  0  0  0  0  0  0  0  0  0  0  0
    3.3350    3.2260   20.5480 F   0  0  0  0  0  0  0  0  0  0  0  0
    1.3700    3.9600   19.9820 F   0  0  0  0  0  0  0  0  0  0  0  0
    2.4680    4.9240   21.5930 F   0  0  0  0  0  0  0  0  0  0  0  0
   -0.7130   11.8280   21.9750 C   0  0  2  0  0  0  0  0  0  0  0  0
    0.3260   12.0970   22.2080 H   0  0  0  0  0  0  0  0  0  0  0  0
   -1.2080   11.0320   23.1930 C   0  0  0  0  0  0  0  0  0  0  0  0
   -2.1640   11.4270   23.5530 H   0  0  0  0  0  0  0  0  0  0  0  0
   -0.4930   11.0980   24.0210 H   0  0  0  0  0  0  0  0  0  0  0  0
   -1.3580    9.9740   22.9600 H   0  0  0  0  0  0  0  0  0  0  0  0
   -1.5330   13.1140   21.7520 C   0  0  0  0  0  0  0  0  0  0  0  0
   -0.9900   13.8140   21.1060 H   0  0  0  0  0  0  0  0  0  0  0  0
   -2.4600   12.8770   21.2160 H   0  0  0  0  0  0  0  0  0  0  0  0
   -1.8710   13.8020   23.0300 C   0  0  0  0  0  0  0  0  0  0  0  0
   -1.0410   14.4930   23.7850 N   0  0  0  0  0  0  0  0  0  0  0  0
   -1.7390   14.9540   24.8750 N   0  0  0  0  0  0  0  0  0  0  0  0
   -2.9770   14.5320   24.7640 C   0  0  0  0  0  0  0  0  0  0  0  0
   -3.1090   13.8090   23.6190 N   0  0  0  0  0  0  0  0  0  0  0  0
   -3.7810   14.7220   25.4620 H   0  0  0  0  0  0  0  0  0  0  0  0
   -4.3200   13.1960   23.1370 C   0  0  0  0  0  0  0  0  0  0  0  0
   -4.8730   12.7870   23.9860 H   0  0  0  0  0  0  0  0  0  0  0  0
   -4.0530   12.4060   22.4330 H   0  0  0  0  0  0  0  0  0  0  0  0
   -4.9320   13.9480   22.6330 H   0  0  0  0  0  0  0  0  0  0  0  0
  1 38  1  0  0  0  0
  2 12  1  0  0  0  0
  2  1  2  0  0  0  0
  3  2  1  0  0  0  0
  4  3  1  0  0  0  0
  5  4  1  0  0  0  0
  6 15  1  0  0  0  0
  6  5  1  0  0  0  0
  6  7  1  0  0  0  0
  7  4  1  0  0  0  0
  7 18  1  0  0  0  0
  8  3  2  0  0  0  0
  8  9  1  0  0  0  0
  9 10  2  0  0  0  0
 10  1  1  0  0  0  0
 10 11  1  0  0  0  0
 13  5  1  0  0  0  0
 14  5  1  0  0  0  0
 16  6  1  0  0  0  0
 17  7  1  0  0  0  0
 19  9  1  0  0  0  0
 19 20  1  0  0  0  0
 20 30  1  0  0  0  0
 21 26  1  0  0  0  0
 21 20  1  0  0  0  0
 22 21  2  0  0  0  0
 23 24  2  0  0  0  0
 23 22  1  0  0  0  0
 24 25  1  0  0  0  0
 25 33  1  0  0  0  0
 25 26  2  0  0  0  0
 26 34  1  0  0  0  0
 27 22  1  0  0  0  0
 27 19  1  0  0  0  0
 28 27  2  0  0  0  0
 29 20  1  0  0  0  0
 31 23  1  0  0  0  0
 32 24  1  0  0  0  0
 34 35  1  0  0  0  0
 34 37  1  0  0  0  0
 36 34  1  0  0  0  0
 38 39  1  1  0  0  0
 38 40  1  0  0  0  0
 40 41  1  0  0  0  0
 40 42  1  0  0  0  0
 43 40  1  0  0  0  0
 44 38  1  0  0  0  0
 44 47  1  0  0  0  0
 45 44  1  0  0  0  0
 46 44  1  0  0  0  0
 47 51  1  0  0  0  0
 47 48  2  0  0  0  0
 48 49  1  0  0  0  0
 50 49  2  0  0  0  0
 50 52  1  0  0  0  0
 51 50  1  0  0  0  0
 53 51  1  0  0  0  0
 53 54  1  0  0  0  0
 55 53  1  0  0  0  0
 56 53  1  0  0  0  0
M  END
>  <MODEL>
7

>  <REMARK>
 VINA RESULT:    -7.699      3.926      8.956
 INTER + INTRA:         -10.496
 INTER:                  -9.350
 INTRA:                  -1.146
 UNBOUND:                -0.097
  Name = 
  7 active torsions:
  status: ('A' for Active; 'I' for Inactive)
    1  A    between atoms: C_1  and  C_2
    2  A    between atoms: C_2  and  C_3
    3  A    between atoms: C_2  and  C_10
    4  A    between atoms: C_3  and  C_4
    5  A    between atoms: N_8  and  C_9
    6  A    between atoms: C_18  and  N_19
    7  A    between atoms: C_26  and  C_27
                            x       y       z     vdW  Elec       q    Type
                         _______ _______ _______ _____ _____    ______ ____

>  <TORSDO>
F 7

$$$$
=
 OpenBabel07192307433D

 56 60  0  0  1  0  0  0  0  0999 V2000
    3.8630    6.7910   18.0750 C   0  0  0  0  0  0  0  0  0  0  0  0
    3.6350    5.5380   18.6460 C   0  0  0  0  0  0  0  0  0  0  0  0
    2.6310    5.3830   19.5990 C   0  0  0  0  0  0  0  0  0  0  0  0
    2.3830    4.1230   20.1660 N   0  0  0  0  0  0  0  0  0  0  0  0
    1.6850    3.9060   21.4020 C   0  0  0  0  0  0  0  0  0  0  0  0
    2.2990    2.5010   21.4000 C   0  0  0  0  0  0  0  0  0  0  0  0
    3.3450    3.0970   20.4490 C   0  0  0  0  0  0  0  0  0  0  0  0
    1.8610    6.4250   19.9850 N   0  0  0  0  0  0  0  0  0  0  0  0
    2.0700    7.6600   19.4550 C   0  0  0  0  0  0  0  0  0  0  0  0
    3.0720    7.8650   18.5070 C   0  0  0  0  0  0  0  0  0  0  0  0
    3.3360    9.0660   17.9820 F   0  0  0  0  0  0  0  0  0  0  0  0
    4.2280    4.6780   18.3550 H   0  0  0  0  0  0  0  0  0  0  0  0
    2.0290    4.5610   22.2090 H   0  0  0  0  0  0  0  0  0  0  0  0
    0.5980    3.9510   21.3020 H   0  0  0  0  0  0  0  0  0  0  0  0
    1.6630    1.7320   20.9480 H   0  0  0  0  0  0  0  0  0  0  0  0
    2.6760    2.1460   22.3630 H   0  0  0  0  0  0  0  0  0  0  0  0
    4.2490    3.4790   20.9340 H   0  0  0  0  0  0  0  0  0  0  0  0
    3.5980    2.4820   19.5830 H   0  0  0  0  0  0  0  0  0  0  0  0
    1.2090    8.6700   19.9430 N   0  0  0  0  0  0  0  0  0  0  0  0
    0.3790    9.4000   18.9950 C   0  0  0  0  0  0  0  0  0  0  0  0
   -0.3500   10.3770   19.8620 C   0  0  0  0  0  0  0  0  0  0  0  0
    0.0400   10.1990   21.1850 C   0  0  0  0  0  0  0  0  0  0  0  0
   -0.4660   10.9690   22.2170 C   0  0  0  0  0  0  0  0  0  0  0  0
   -1.3990   11.9530   21.8920 C   0  0  0  0  0  0  0  0  0  0  0  0
   -1.8030   12.1430   20.5570 C   0  0  0  0  0  0  0  0  0  0  0  0
   -1.2800   11.3530   19.5150 C   0  0  0  0  0  0  0  0  0  0  0  0
    1.0300    9.1130   21.2460 C   0  0  0  0  0  0  0  0  0  0  0  0
    1.5220    8.7670   22.3020 O   0  0  0  0  0  0  0  0  0  0  0  0
   -0.3210    8.7140   18.5070 H   0  0  0  0  0  0  0  0  0  0  0  0
    1.0130    9.9220   18.2700 H   0  0  0  0  0  0  0  0  0  0  0  0
   -0.1440   10.8080   23.2420 H   0  0  0  0  0  0  0  0  0  0  0  0
   -1.8190   12.5790   22.6780 H   0  0  0  0  0  0  0  0  0  0  0  0
   -2.5340   12.9220   20.3370 H   0  0  0  0  0  0  0  0  0  0  0  0
   -1.7030   11.5490   18.0840 C   0  0  0  0  0  0  0  0  0  0  0  0
   -1.0080   12.5480   17.4740 F   0  0  0  0  0  0  0  0  0  0  0  0
   -3.0170   11.8900   17.9770 F   0  0  0  0  0  0  0  0  0  0  0  0
   -1.5350   10.4460   17.3070 F   0  0  0  0  0  0  0  0  0  0  0  0
    4.9590    7.0490   17.0510 C   0  0  2  0  0  0  0  0  0  0  0  0
    5.3620    8.0520   17.2500 H   0  0  0  0  0  0  0  0  0  0  0  0
    4.4440    7.0990   15.6050 C   0  0  0  0  0  0  0  0  0  0  0  0
    3.3540    7.1930   15.5830 H   0  0  0  0  0  0  0  0  0  0  0  0
    4.7040    6.1820   15.0640 H   0  0  0  0  0  0  0  0  0  0  0  0
    4.8570    7.9470   15.0500 H   0  0  0  0  0  0  0  0  0  0  0  0
    6.0800    6.0060   17.2310 C   0  0  0  0  0  0  0  0  0  0  0  0
    7.0250    6.4940   17.4990 H   0  0  0  0  0  0  0  0  0  0  0  0
    5.8420    5.3440   18.0730 H   0  0  0  0  0  0  0  0  0  0  0  0
    6.2930    5.1840   16.0080 C   0  0  0  0  0  0  0  0  0  0  0  0
    7.1510    5.4350   15.0400 N   0  0  0  0  0  0  0  0  0  0  0  0
    7.0310    4.4460   14.0940 N   0  0  0  0  0  0  0  0  0  0  0  0
    6.1000    3.6140   14.5030 C   0  0  0  0  0  0  0  0  0  0  0  0
    5.6120    4.0330   15.7020 N   0  0  0  0  0  0  0  0  0  0  0  0
    5.7630    2.7280   13.9830 H   0  0  0  0  0  0  0  0  0  0  0  0
    4.5940    3.3760   16.4810 C   0  0  0  0  0  0  0  0  0  0  0  0
    3.7680    4.0720   16.6460 H   0  0  0  0  0  0  0  0  0  0  0  0
    5.0320    3.0630   17.4310 H   0  0  0  0  0  0  0  0  0  0  0  0
    4.2290    2.5010   15.9370 H   0  0  0  0  0  0  0  0  0  0  0  0
  1 10  2  0  0  0  0
  1  2  1  0  0  0  0
  2  3  2  0  0  0  0
  3  8  1  0  0  0  0
  3  4  1  0  0  0  0
  4  7  1  0  0  0  0
  4  5  1  0  0  0  0
  5 13  1  0  0  0  0
  6  5  1  0  0  0  0
  6 16  1  0  0  0  0
  7 17  1  0  0  0  0
  7  6  1  0  0  0  0
  9 19  1  0  0  0  0
  9  8  2  0  0  0  0
 10  9  1  0  0  0  0
 11 10  1  0  0  0  0
 12  2  1  0  0  0  0
 14  5  1  0  0  0  0
 15  6  1  0  0  0  0
 18  7  1  0  0  0  0
 19 27  1  0  0  0  0
 20 21  1  0  0  0  0
 20 19  1  0  0  0  0
 21 22  1  0  0  0  0
 22 27  1  0  0  0  0
 22 23  2  0  0  0  0
 23 31  1  0  0  0  0
 24 23  1  0  0  0  0
 24 32  1  0  0  0  0
 25 24  2  0  0  0  0
 26 21  2  0  0  0  0
 26 25  1  0  0  0  0
 27 28  2  0  0  0  0
 29 20  1  0  0  0  0
 30 20  1  0  0  0  0
 33 25  1  0  0  0  0
 34 26  1  0  0  0  0
 35 34  1  0  0  0  0
 36 34  1  0  0  0  0
 37 34  1  0  0  0  0
 38 44  1  0  0  0  0
 38 39  1  1  0  0  0
 38  1  1  0  0  0  0
 40 38  1  0  0  0  0
 41 40  1  0  0  0  0
 42 40  1  0  0  0  0
 43 40  1  0  0  0  0
 44 45  1  0  0  0  0
 44 46  1  0  0  0  0
 47 44  1  0  0  0  0
 48 47  2  0  0  0  0
 49 50  2  0  0  0  0
 49 48  1  0  0  0  0
 50 51  1  0  0  0  0
 51 47  1  0  0  0  0
 51 53  1  0  0  0  0
 52 50  1  0  0  0  0
 53 54  1  0  0  0  0
 53 55  1  0  0  0  0
 56 53  1  0  0  0  0
M  END
>  <MODEL>
8

>  <REMARK>
 VINA RESULT:    -7.646      2.589      3.380
 INTER + INTRA:         -10.424
 INTER:                 -10.004
 INTRA:                  -0.420
 UNBOUND:                -0.097
  Name = 
  7 active torsions:
  status: ('A' for Active; 'I' for Inactive)
    1  A    between atoms: C_1  and  C_2
    2  A    between atoms: C_2  and  C_3
    3  A    between atoms: C_2  and  C_10
    4  A    between atoms: C_3  and  C_4
    5  A    between atoms: N_8  and  C_9
    6  A    between atoms: C_18  and  N_19
    7  A    between atoms: C_26  and  C_27
                            x       y       z     vdW  Elec       q    Type
                         _______ _______ _______ _____ _____    ______ ____

>  <TORSDO>
F 7

$$$$
=
 OpenBabel07192307433D

 56 60  0  0  1  0  0  0  0  0999 V2000
   -0.5350   10.9290   20.7120 C   0  0  0  0  0  0  0  0  0  0  0  0
   -1.5170   11.0640   19.7290 C   0  0  0  0  0  0  0  0  0  0  0  0
   -1.4510   10.2890   18.5740 C   0  0  0  0  0  0  0  0  0  0  0  0
   -2.4430   10.4060   17.5870 N   0  0  0  0  0  0  0  0  0  0  0  0
   -2.2920    9.9850   16.2220 C   0  0  0  0  0  0  0  0  0  0  0  0
   -3.5060   10.8670   15.9080 C   0  0  0  0  0  0  0  0  0  0  0  0
   -3.1590   11.5920   17.2150 C   0  0  0  0  0  0  0  0  0  0  0  0
   -0.4540    9.3970   18.3810 N   0  0  0  0  0  0  0  0  0  0  0  0
    0.5230    9.2540   19.3160 C   0  0  0  0  0  0  0  0  0  0  0  0
    0.5050   10.0180   20.4830 C   0  0  0  0  0  0  0  0  0  0  0  0
    1.4610    9.9360   21.4160 F   0  0  0  0  0  0  0  0  0  0  0  0
   -2.3350   11.7650   19.8530 H   0  0  0  0  0  0  0  0  0  0  0  0
   -1.3500   10.3180   15.7740 H   0  0  0  0  0  0  0  0  0  0  0  0
   -2.4330    8.9110   16.0790 H   0  0  0  0  0  0  0  0  0  0  0  0
   -4.4650   10.3370   15.9270 H   0  0  0  0  0  0  0  0  0  0  0  0
   -3.4360   11.4660   14.9970 H   0  0  0  0  0  0  0  0  0  0  0  0
   -2.5090   12.4660   17.1020 H   0  0  0  0  0  0  0  0  0  0  0  0
   -4.0040   11.8170   17.8680 H   0  0  0  0  0  0  0  0  0  0  0  0
    1.5150    8.2980   18.9980 N   0  0  0  0  0  0  0  0  0  0  0  0
    1.5230    7.0320   19.7190 C   0  0  0  0  0  0  0  0  0  0  0  0
    2.7020    6.3180   19.1410 C   0  0  0  0  0  0  0  0  0  0  0  0
    3.2990    7.1200   18.1730 C   0  0  0  0  0  0  0  0  0  0  0  0
    4.4200    6.7230   17.4680 C   0  0  0  0  0  0  0  0  0  0  0  0
    4.9550    5.4680   17.7570 C   0  0  0  0  0  0  0  0  0  0  0  0
    4.3610    4.6450   18.7340 C   0  0  0  0  0  0  0  0  0  0  0  0
    3.2190    5.0610   19.4450 C   0  0  0  0  0  0  0  0  0  0  0  0
    2.5470    8.3820   18.0750 C   0  0  0  0  0  0  0  0  0  0  0  0
    2.8740    9.2510   17.2920 O   0  0  0  0  0  0  0  0  0  0  0  0
    0.5970    6.4830   19.5170 H   0  0  0  0  0  0  0  0  0  0  0  0
    1.6650    7.2130   20.7900 H   0  0  0  0  0  0  0  0  0  0  0  0
    4.8640    7.3700   16.7180 H   0  0  0  0  0  0  0  0  0  0  0  0
    5.8380    5.1210   17.2240 H   0  0  0  0  0  0  0  0  0  0  0  0
    4.8050    3.6690   18.9360 H   0  0  0  0  0  0  0  0  0  0  0  0
    2.5780    4.1910   20.4920 C   0  0  0  0  0  0  0  0  0  0  0  0
    1.3100    3.8270   20.1520 F   0  0  0  0  0  0  0  0  0  0  0  0
    2.4750    4.8210   21.6940 F   0  0  0  0  0  0  0  0  0  0  0  0
    3.2490    3.0320   20.7290 F   0  0  0  0  0  0  0  0  0  0  0  0
   -0.5180   11.7610   21.9860 C   0  0  2  0  0  0  0  0  0  0  0  0
    0.5340   11.9530   22.2370 H   0  0  0  0  0  0  0  0  0  0  0  0
   -1.0960   11.0230   23.2040 C   0  0  0  0  0  0  0  0  0  0  0  0
   -2.1900   11.0180   23.1730 H   0  0  0  0  0  0  0  0  0  0  0  0
   -0.7970   11.5120   24.1370 H   0  0  0  0  0  0  0  0  0  0  0  0
   -0.7650    9.9800   23.2490 H   0  0  0  0  0  0  0  0  0  0  0  0
   -1.2330   13.1020   21.7300 C   0  0  0  0  0  0  0  0  0  0  0  0
   -0.5630   13.9450   21.9370 H   0  0  0  0  0  0  0  0  0  0  0  0
   -1.4940   13.1880   20.6670 H   0  0  0  0  0  0  0  0  0  0  0  0
   -2.4670   13.2540   22.5500 C   0  0  0  0  0  0  0  0  0  0  0  0
   -3.6430   12.7180   22.2960 N   0  0  0  0  0  0  0  0  0  0  0  0
   -4.5140   13.1080   23.2840 N   0  0  0  0  0  0  0  0  0  0  0  0
   -3.8530   13.8770   24.1170 C   0  0  0  0  0  0  0  0  0  0  0  0
   -2.5620   13.9940   23.7010 N   0  0  0  0  0  0  0  0  0  0  0  0
   -4.2530   14.3510   25.0040 H   0  0  0  0  0  0  0  0  0  0  0  0
   -1.5220   14.7390   24.3610 C   0  0  0  0  0  0  0  0  0  0  0  0
   -1.0080   15.3600   23.6240 H   0  0  0  0  0  0  0  0  0  0  0  0
   -0.8280   14.0330   24.8220 H   0  0  0  0  0  0  0  0  0  0  0  0
   -1.9630   15.3770   25.1310 H   0  0  0  0  0  0  0  0  0  0  0  0
  1 38  1  0  0  0  0
  2 12  1  0  0  0  0
  2  1  2  0  0  0  0
  3  2  1  0  0  0  0
  4  3  1  0  0  0  0
  5  4  1  0  0  0  0
  6 15  1  0  0  0  0
  6  5  1  0  0  0  0
  6  7  1  0  0  0  0
  7  4  1  0  0  0  0
  7 18  1  0  0  0  0
  8  3  2  0  0  0  0
  8  9  1  0  0  0  0
  9 10  2  0  0  0  0
 10  1  1  0  0  0  0
 10 11  1  0  0  0  0
 13  5  1  0  0  0  0
 14  5  1  0  0  0  0
 16  6  1  0  0  0  0
 17  7  1  0  0  0  0
 19  9  1  0  0  0  0
 19 20  1  0  0  0  0
 20 30  1  0  0  0  0
 21 26  1  0  0  0  0
 21 20  1  0  0  0  0
 22 21  2  0  0  0  0
 23 24  2  0  0  0  0
 23 22  1  0  0  0  0
 24 25  1  0  0  0  0
 25 33  1  0  0  0  0
 25 26  2  0  0  0  0
 26 34  1  0  0  0  0
 27 22  1  0  0  0  0
 27 19  1  0  0  0  0
 28 27  2  0  0  0  0
 29 20  1  0  0  0  0
 31 23  1  0  0  0  0
 32 24  1  0  0  0  0
 34 37  1  0  0  0  0
 34 36  1  0  0  0  0
 35 34  1  0  0  0  0
 38 39  1  1  0  0  0
 38 40  1  0  0  0  0
 40 43  1  0  0  0  0
 40 42  1  0  0  0  0
 41 40  1  0  0  0  0
 44 45  1  0  0  0  0
 44 38  1  0  0  0  0
 44 47  1  0  0  0  0
 46 44  1  0  0  0  0
 47 51  1  0  0  0  0
 48 47  2  0  0  0  0
 48 49  1  0  0  0  0
 49 50  2  0  0  0  0
 50 52  1  0  0  0  0
 51 50  1  0  0  0  0
 51 53  1  0  0  0  0
 53 55  1  0  0  0  0
 53 56  1  0  0  0  0
 54 53  1  0  0  0  0
M  END
>  <MODEL>
9

>  <REMARK>
 VINA RESULT:    -7.627      3.832      8.922
 INTER + INTRA:         -10.399
 INTER:                  -9.373
 INTRA:                  -1.026
 UNBOUND:                -0.097
  Name = 
  7 active torsions:
  status: ('A' for Active; 'I' for Inactive)
    1  A    between atoms: C_1  and  C_2
    2  A    between atoms: C_2  and  C_3
    3  A    between atoms: C_2  and  C_10
    4  A    between atoms: C_3  and  C_4
    5  A    between atoms: N_8  and  C_9
    6  A    between atoms: C_18  and  N_19
    7  A    between atoms: C_26  and  C_27
                            x       y       z     vdW  Elec       q    Type
                         _______ _______ _______ _____ _____    ______ ____

>  <TORSDO>
F 7

$$$$
=
 OpenBabel07192307433D

 56 60  0  0  1  0  0  0  0  0999 V2000
   -0.0730   12.1070   19.4390 C   0  0  0  0  0  0  0  0  0  0  0  0
   -1.1180   11.9450   18.5280 C   0  0  0  0  0  0  0  0  0  0  0  0
   -1.2860   10.7270   17.8750 C   0  0  0  0  0  0  0  0  0  0  0  0
   -2.3450   10.5490   16.9700 N   0  0  0  0  0  0  0  0  0  0  0  0
   -2.3970    9.5260   15.9630 C   0  0  0  0  0  0  0  0  0  0  0  0
   -3.4920   10.3640   15.2940 C   0  0  0  0  0  0  0  0  0  0  0  0
   -2.9100   11.5360   16.0960 C   0  0  0  0  0  0  0  0  0  0  0  0
   -0.4580    9.6840   18.1080 N   0  0  0  0  0  0  0  0  0  0  0  0
    0.5760    9.8170   18.9810 C   0  0  0  0  0  0  0  0  0  0  0  0
    0.7910   11.0230   19.6480 C   0  0  0  0  0  0  0  0  0  0  0  0
    1.8130   11.2120   20.4900 F   0  0  0  0  0  0  0  0  0  0  0  0
   -1.8070   12.7570   18.3210 H   0  0  0  0  0  0  0  0  0  0  0  0
   -1.4670    9.4390   15.3930 H   0  0  0  0  0  0  0  0  0  0  0  0
   -2.7100    8.5520   16.3480 H   0  0  0  0  0  0  0  0  0  0  0  0
   -4.5120   10.0840   15.5800 H   0  0  0  0  0  0  0  0  0  0  0  0
   -3.4270   10.4510   14.2060 H   0  0  0  0  0  0  0  0  0  0  0  0
   -2.1520   12.1270   15.5700 H   0  0  0  0  0  0  0  0  0  0  0  0
   -3.6420   12.1840   16.5810 H   0  0  0  0  0  0  0  0  0  0  0  0
    1.3780    8.6620   19.1340 N   0  0  0  0  0  0  0  0  0  0  0  0
    2.3740    8.3620   18.1140 C   0  0  0  0  0  0  0  0  0  0  0  0
    2.9820    7.0840   18.5970 C   0  0  0  0  0  0  0  0  0  0  0  0
    2.3770    6.7070   19.7910 C   0  0  0  0  0  0  0  0  0  0  0  0
    2.7320    5.5580   20.4730 C   0  0  0  0  0  0  0  0  0  0  0  0
    3.7360    4.7630   19.9210 C   0  0  0  0  0  0  0  0  0  0  0  0
    4.3570    5.1320   18.7120 C   0  0  0  0  0  0  0  0  0  0  0  0
    3.9870    6.3060   18.0280 C   0  0  0  0  0  0  0  0  0  0  0  0
    1.3560    7.7080   20.1410 C   0  0  0  0  0  0  0  0  0  0  0  0
    0.6870    7.6000   21.1500 O   0  0  0  0  0  0  0  0  0  0  0  0
    3.1220    9.1610   18.0780 H   0  0  0  0  0  0  0  0  0  0  0  0
    1.8840    8.2170   17.1450 H   0  0  0  0  0  0  0  0  0  0  0  0
    2.2420    5.2890   21.4040 H   0  0  0  0  0  0  0  0  0  0  0  0
    4.0420    3.8500   20.4280 H   0  0  0  0  0  0  0  0  0  0  0  0
    5.1390    4.4880   18.3080 H   0  0  0  0  0  0  0  0  0  0  0  0
    4.6440    6.7100   16.7360 C   0  0  0  0  0  0  0  0  0  0  0  0
    4.9970    5.6330   15.9800 F   0  0  0  0  0  0  0  0  0  0  0  0
    5.7900    7.4140   16.9380 F   0  0  0  0  0  0  0  0  0  0  0  0
    3.8590    7.4850   15.9410 F   0  0  0  0  0  0  0  0  0  0  0  0
    0.1970   13.4150   20.1680 C   0  0  2  0  0  0  0  0  0  0  0  0
   -0.6410   14.0910   19.9470 H   0  0  0  0  0  0  0  0  0  0  0  0
    1.4500   14.1460   19.6650 C   0  0  0  0  0  0  0  0  0  0  0  0
    1.2470   15.2130   19.5240 H   0  0  0  0  0  0  0  0  0  0  0  0
    1.7790   13.7450   18.7010 H   0  0  0  0  0  0  0  0  0  0  0  0
    2.2850   14.0630   20.3680 H   0  0  0  0  0  0  0  0  0  0  0  0
    0.2500   13.1510   21.6860 C   0  0  0  0  0  0  0  0  0  0  0  0
    0.8590   12.2660   21.9050 H   0  0  0  0  0  0  0  0  0  0  0  0
    0.7510   13.9850   22.1920 H   0  0  0  0  0  0  0  0  0  0  0  0
   -1.1040   12.9610   22.2780 C   0  0  0  0  0  0  0  0  0  0  0  0
   -2.0600   13.8650   22.3390 N   0  0  0  0  0  0  0  0  0  0  0  0
   -3.1440   13.2990   22.9670 N   0  0  0  0  0  0  0  0  0  0  0  0
   -2.8240   12.0640   23.2790 C   0  0  0  0  0  0  0  0  0  0  0  0
   -1.5550   11.8050   22.8620 N   0  0  0  0  0  0  0  0  0  0  0  0
   -3.4570   11.3490   23.7860 H   0  0  0  0  0  0  0  0  0  0  0  0
   -0.8530   10.5550   23.0030 C   0  0  0  0  0  0  0  0  0  0  0  0
   -1.5810    9.7560   23.1610 H   0  0  0  0  0  0  0  0  0  0  0  0
   -0.1730   10.6330   23.8540 H   0  0  0  0  0  0  0  0  0  0  0  0
   -0.2830   10.3530   22.0930 H   0  0  0  0  0  0  0  0  0  0  0  0
  1 10  1  0  0  0  0
  1 38  1  0  0  0  0
  2  1  2  0  0  0  0
  3  8  2  0  0  0  0
  3  2  1  0  0  0  0
  4  3  1  0  0  0  0
  5 14  1  0  0  0  0
  5  4  1  0  0  0  0
  6 15  1  0  0  0  0
  6  5  1  0  0  0  0
  6  7  1  0  0  0  0
  7 18  1  0  0  0  0
  7  4  1  0  0  0  0
  8  9  1  0  0  0  0
  9 19  1  0  0  0  0
  9 10  2  0  0  0  0
 10 11  1  0  0  0  0
 12  2  1  0  0  0  0
 13  5  1  0  0  0  0
 16  6  1  0  0  0  0
 17  7  1  0  0  0  0
 19 27  1  0  0  0  0
 20 21  1  0  0  0  0
 20 19  1  0  0  0  0
 21 22  1  0  0  0  0
 22 27  1  0  0  0  0
 22 23  2  0  0  0  0
 23 31  1  0  0  0  0
 24 32  1  0  0  0  0
 24 23  1  0  0  0  0
 25 24  2  0  0  0  0
 26 21  2  0  0  0  0
 26 25  1  0  0  0  0
 27 28  2  0  0  0  0
 29 20  1  0  0  0  0
 30 20  1  0  0  0  0
 33 25  1  0  0  0  0
 34 36  1  0  0  0  0
 34 26  1  0  0  0  0
 35 34  1  0  0  0  0
 37 34  1  0  0  0  0
 38 39  1  6  0  0  0
 38 44  1  0  0  0  0
 40 38  1  0  0  0  0
 40 43  1  0  0  0  0
 41 40  1  0  0  0  0
 42 40  1  0  0  0  0
 44 45  1  0  0  0  0
 44 46  1  0  0  0  0
 44 47  1  0  0  0  0
 47 48  2  0  0  0  0
 47 51  1  0  0  0  0
 48 49  1  0  0  0  0
 49 50  2  0  0  0  0
 50 52  1  0  0  0  0
 51 53  1  0  0  0  0
 51 50  1  0  0  0  0
 53 54  1  0  0  0  0
 53 55  1  0  0  0  0
 56 53  1  0  0  0  0
M  END
>  <MODEL>
10

>  <REMARK>
 VINA RESULT:    -7.624      3.291      8.730
 INTER + INTRA:         -10.395
 INTER:                  -9.492
 INTRA:                  -0.903
 UNBOUND:                -0.097
  Name = 
  7 active torsions:
  status: ('A' for Active; 'I' for Inactive)
    1  A    between atoms: C_1  and  C_2
    2  A    between atoms: C_2  and  C_3
    3  A    between atoms: C_2  and  C_10
    4  A    between atoms: C_3  and  C_4
    5  A    between atoms: N_8  and  C_9
    6  A    between atoms: C_18  and  N_19
    7  A    between atoms: C_26  and  C_27
                            x       y       z     vdW  Elec       q    Type
                         _______ _______ _______ _____ _____    ______ ____

>  <TORSDO>
F 7

$$$$
=
 OpenBabel07192307433D

 56 60  0  0  1  0  0  0  0  0999 V2000
   -0.5820   11.6150   18.7230 C   0  0  0  0  0  0  0  0  0  0  0  0
    0.3130   12.6520   18.4550 C   0  0  0  0  0  0  0  0  0  0  0  0
    1.6730   12.3800   18.3330 C   0  0  0  0  0  0  0  0  0  0  0  0
    2.5780   13.4140   18.0460 N   0  0  0  0  0  0  0  0  0  0  0  0
    3.9930   13.3520   18.2850 C   0  0  0  0  0  0  0  0  0  0  0  0
    3.9930   14.8790   18.1560 C   0  0  0  0  0  0  0  0  0  0  0  0
    2.4960   14.7800   18.4760 C   0  0  0  0  0  0  0  0  0  0  0  0
    2.1530   11.1230   18.4630 N   0  0  0  0  0  0  0  0  0  0  0  0
    1.3060   10.0950   18.7380 C   0  0  0  0  0  0  0  0  0  0  0  0
   -0.0620   10.3220   18.8820 C   0  0  0  0  0  0  0  0  0  0  0  0
   -0.9290    9.3490   19.1840 F   0  0  0  0  0  0  0  0  0  0  0  0
   -0.0370   13.6720   18.3370 H   0  0  0  0  0  0  0  0  0  0  0  0
    4.2430   12.9710   19.2800 H   0  0  0  0  0  0  0  0  0  0  0  0
    4.5420   12.8080   17.5120 H   0  0  0  0  0  0  0  0  0  0  0  0
    4.2160   15.2460   17.1480 H   0  0  0  0  0  0  0  0  0  0  0  0
    4.6020   15.4180   18.8860 H   0  0  0  0  0  0  0  0  0  0  0  0
    2.2400   14.8800   19.5360 H   0  0  0  0  0  0  0  0  0  0  0  0
    1.8400   15.3960   17.8570 H   0  0  0  0  0  0  0  0  0  0  0  0
    1.9270    8.8300   18.8610 N   0  0  0  0  0  0  0  0  0  0  0  0
    2.8700    8.4110   17.8330 C   0  0  0  0  0  0  0  0  0  0  0  0
    3.2810    7.0460   18.2840 C   0  0  0  0  0  0  0  0  0  0  0  0
    2.6230    6.7330   19.4690 C   0  0  0  0  0  0  0  0  0  0  0  0
    2.8020    5.5270   20.1210 C   0  0  0  0  0  0  0  0  0  0  0  0
    3.6780    4.6060   19.5490 C   0  0  0  0  0  0  0  0  0  0  0  0
    4.3510    4.9090   18.3490 C   0  0  0  0  0  0  0  0  0  0  0  0
    4.1610    6.1410   17.6950 C   0  0  0  0  0  0  0  0  0  0  0  0
    1.7610    7.8650   19.8450 C   0  0  0  0  0  0  0  0  0  0  0  0
    1.0810    7.8330   20.8510 O   0  0  0  0  0  0  0  0  0  0  0  0
    3.7290    9.0910   17.8170 H   0  0  0  0  0  0  0  0  0  0  0  0
    2.3670    8.3640   16.8620 H   0  0  0  0  0  0  0  0  0  0  0  0
    2.2750    5.3110   21.0460 H   0  0  0  0  0  0  0  0  0  0  0  0
    3.8440    3.6450   20.0330 H   0  0  0  0  0  0  0  0  0  0  0  0
    5.0300    4.1660   17.9280 H   0  0  0  0  0  0  0  0  0  0  0  0
    4.8740    6.4750   16.4130 C   0  0  0  0  0  0  0  0  0  0  0  0
    5.0900    5.3730   15.6420 F   0  0  0  0  0  0  0  0  0  0  0  0
    6.1010    7.0230   16.6320 F   0  0  0  0  0  0  0  0  0  0  0  0
    4.2020    7.3570   15.6250 F   0  0  0  0  0  0  0  0  0  0  0  0
   -2.0770   11.8340   18.9020 C   0  0  2  0  0  0  0  0  0  0  0  0
   -2.3670   12.6620   18.2400 H   0  0  0  0  0  0  0  0  0  0  0  0
   -2.4610   12.2950   20.3170 C   0  0  0  0  0  0  0  0  0  0  0  0
   -1.6630   12.9000   20.7590 H   0  0  0  0  0  0  0  0  0  0  0  0
   -2.6250   11.4370   20.9780 H   0  0  0  0  0  0  0  0  0  0  0  0
   -3.3710   12.9020   20.3190 H   0  0  0  0  0  0  0  0  0  0  0  0
   -2.8330   10.5590   18.4830 C   0  0  0  0  0  0  0  0  0  0  0  0
   -2.2850    9.6620   18.7960 H   0  0  0  0  0  0  0  0  0  0  0  0
   -3.7980   10.5100   19.0030 H   0  0  0  0  0  0  0  0  0  0  0  0
   -3.0660   10.4920   17.0140 C   0  0  0  0  0  0  0  0  0  0  0  0
   -2.3270    9.8430   16.1370 N   0  0  0  0  0  0  0  0  0  0  0  0
   -2.8710   10.0400   14.8900 N   0  0  0  0  0  0  0  0  0  0  0  0
   -3.9260   10.8090   15.0320 C   0  0  0  0  0  0  0  0  0  0  0  0
   -4.0910   11.1140   16.3480 N   0  0  0  0  0  0  0  0  0  0  0  0
   -4.5760   11.1530   14.2390 H   0  0  0  0  0  0  0  0  0  0  0  0
   -5.1470   11.9180   16.9060 C   0  0  0  0  0  0  0  0  0  0  0  0
   -4.7470   12.9030   17.1610 H   0  0  0  0  0  0  0  0  0  0  0  0
   -5.5330   11.4160   17.7950 H   0  0  0  0  0  0  0  0  0  0  0  0
   -5.9470   12.0310   16.1700 H   0  0  0  0  0  0  0  0  0  0  0  0
  1 10  1  0  0  0  0
  1 38  1  0  0  0  0
  2  1  2  0  0  0  0
  3  2  1  0  0  0  0
  3  8  2  0  0  0  0
  4  5  1  0  0  0  0
  4  3  1  0  0  0  0
  4  7  1  0  0  0  0
  5 13  1  0  0  0  0
  6  5  1  0  0  0  0
  6  7  1  0  0  0  0
  6 16  1  0  0  0  0
  7 17  1  0  0  0  0
  8  9  1  0  0  0  0
  9 19  1  0  0  0  0
  9 10  2  0  0  0  0
 10 11  1  0  0  0  0
 12  2  1  0  0  0  0
 14  5  1  0  0  0  0
 15  6  1  0  0  0  0
 18  7  1  0  0  0  0
 19 27  1  0  0  0  0
 20 21  1  0  0  0  0
 20 19  1  0  0  0  0
 21 22  1  0  0  0  0
 22 27  1  0  0  0  0
 22 23  2  0  0  0  0
 23 31  1  0  0  0  0
 24 32  1  0  0  0  0
 24 23  1  0  0  0  0
 25 24  2  0  0  0  0
 26 21  2  0  0  0  0
 26 25  1  0  0  0  0
 27 28  2  0  0  0  0
 29 20  1  0  0  0  0
 30 20  1  0  0  0  0
 33 25  1  0  0  0  0
 34 36  1  0  0  0  0
 34 26  1  0  0  0  0
 35 34  1  0  0  0  0
 37 34  1  0  0  0  0
 38 39  1  6  0  0  0
 38 40  1  0  0  0  0
 40 43  1  0  0  0  0
 40 41  1  0  0  0  0
 40 42  1  0  0  0  0
 44 45  1  0  0  0  0
 44 38  1  0  0  0  0
 44 46  1  0  0  0  0
 47 44  1  0  0  0  0
 48 47  2  0  0  0  0
 49 50  2  0  0  0  0
 49 48  1  0  0  0  0
 50 51  1  0  0  0  0
 51 53  1  0  0  0  0
 51 47  1  0  0  0  0
 52 50  1  0  0  0  0
 53 54  1  0  0  0  0
 53 55  1  0  0  0  0
 56 53  1  0  0  0  0
M  END
>  <MODEL>
11

>  <REMARK>
 VINA RESULT:    -7.622      3.401      9.045
 INTER + INTRA:         -10.392
 INTER:                 -10.324
 INTRA:                  -0.067
 UNBOUND:                -0.097
  Name = 
  7 active torsions:
  status: ('A' for Active; 'I' for Inactive)
    1  A    between atoms: C_1  and  C_2
    2  A    between atoms: C_2  and  C_3
    3  A    between atoms: C_2  and  C_10
    4  A    between atoms: C_3  and  C_4
    5  A    between atoms: N_8  and  C_9
    6  A    between atoms: C_18  and  N_19
    7  A    between atoms: C_26  and  C_27
                            x       y       z     vdW  Elec       q    Type
                         _______ _______ _______ _____ _____    ______ ____

>  <TORSDO>
F 7

$$$$
=
 OpenBabel07192307433D

 56 60  0  0  1  0  0  0  0  0999 V2000
    0.0120   12.1580   19.3040 C   0  0  0  0  0  0  0  0  0  0  0  0
   -1.0660   11.9810   18.4340 C   0  0  0  0  0  0  0  0  0  0  0  0
   -1.2770   10.7420   17.8360 C   0  0  0  0  0  0  0  0  0  0  0  0
   -2.3680   10.5500   16.9730 N   0  0  0  0  0  0  0  0  0  0  0  0
   -2.4720    9.4890   16.0100 C   0  0  0  0  0  0  0  0  0  0  0  0
   -3.5730   10.3220   15.3430 C   0  0  0  0  0  0  0  0  0  0  0  0
   -2.9430   11.5120   16.0790 C   0  0  0  0  0  0  0  0  0  0  0  0
   -0.4610    9.6930   18.0840 N   0  0  0  0  0  0  0  0  0  0  0  0
    0.6040    9.8400   18.9170 C   0  0  0  0  0  0  0  0  0  0  0  0
    0.8620   11.0660   19.5280 C   0  0  0  0  0  0  0  0  0  0  0  0
    1.9150   11.2680   20.3290 F   0  0  0  0  0  0  0  0  0  0  0  0
   -1.7450   12.7980   18.2180 H   0  0  0  0  0  0  0  0  0  0  0  0
   -1.5630    9.3620   15.4140 H   0  0  0  0  0  0  0  0  0  0  0  0
   -2.7900    8.5370   16.4420 H   0  0  0  0  0  0  0  0  0  0  0  0
   -4.5870   10.0730   15.6720 H   0  0  0  0  0  0  0  0  0  0  0  0
   -3.5410   10.3650   14.2510 H   0  0  0  0  0  0  0  0  0  0  0  0
   -2.1920   12.0670   15.5060 H   0  0  0  0  0  0  0  0  0  0  0  0
   -3.6470   12.1930   16.5610 H   0  0  0  0  0  0  0  0  0  0  0  0
    1.3890    8.6760   19.0890 N   0  0  0  0  0  0  0  0  0  0  0  0
    2.3890    8.3510   18.0810 C   0  0  0  0  0  0  0  0  0  0  0  0
    2.9760    7.0710   18.5840 C   0  0  0  0  0  0  0  0  0  0  0  0
    2.3570    6.7160   19.7780 C   0  0  0  0  0  0  0  0  0  0  0  0
    2.6910    5.5700   20.4750 C   0  0  0  0  0  0  0  0  0  0  0  0
    3.6880    4.7550   19.9410 C   0  0  0  0  0  0  0  0  0  0  0  0
    4.3240    5.1030   18.7330 C   0  0  0  0  0  0  0  0  0  0  0  0
    3.9750    6.2730   18.0330 C   0  0  0  0  0  0  0  0  0  0  0  0
    1.3460    7.7340   20.1080 C   0  0  0  0  0  0  0  0  0  0  0  0
    0.6680    7.6470   21.1120 O   0  0  0  0  0  0  0  0  0  0  0  0
    3.1480    9.1400   18.0420 H   0  0  0  0  0  0  0  0  0  0  0  0
    1.9040    8.2010   17.1100 H   0  0  0  0  0  0  0  0  0  0  0  0
    2.1900    5.3180   21.4060 H   0  0  0  0  0  0  0  0  0  0  0  0
    3.9780    3.8440   20.4610 H   0  0  0  0  0  0  0  0  0  0  0  0
    5.1010    4.4430   18.3430 H   0  0  0  0  0  0  0  0  0  0  0  0
    4.6470    6.6530   16.7410 C   0  0  0  0  0  0  0  0  0  0  0  0
    5.0140    5.5620   16.0120 F   0  0  0  0  0  0  0  0  0  0  0  0
    5.7890    7.3660   16.9440 F   0  0  0  0  0  0  0  0  0  0  0  0
    3.8710    7.4090   15.9200 F   0  0  0  0  0  0  0  0  0  0  0  0
    0.3290   13.4870   19.9720 C   0  0  2  0  0  0  0  0  0  0  0  0
    0.7950   13.2640   20.9420 H   0  0  0  0  0  0  0  0  0  0  0  0
   -0.9210   14.3160   20.3060 C   0  0  0  0  0  0  0  0  0  0  0  0
   -1.6330   13.7270   20.8930 H   0  0  0  0  0  0  0  0  0  0  0  0
   -1.4350   14.6370   19.3930 H   0  0  0  0  0  0  0  0  0  0  0  0
   -0.6780   15.2100   20.8890 H   0  0  0  0  0  0  0  0  0  0  0  0
    1.3270   14.2720   19.0980 C   0  0  0  0  0  0  0  0  0  0  0  0
    1.4770   13.7690   18.1340 H   0  0  0  0  0  0  0  0  0  0  0  0
    0.9130   15.2580   18.8530 H   0  0  0  0  0  0  0  0  0  0  0  0
    2.6490   14.4460   19.7610 C   0  0  0  0  0  0  0  0  0  0  0  0
    2.9230   14.2050   21.0270 N   0  0  0  0  0  0  0  0  0  0  0  0
    4.2480   14.5020   21.2410 N   0  0  0  0  0  0  0  0  0  0  0  0
    4.7520   14.9210   20.1040 C   0  0  0  0  0  0  0  0  0  0  0  0
    3.7870   14.8990   19.1440 N   0  0  0  0  0  0  0  0  0  0  0  0
    5.7730   15.2360   19.9360 H   0  0  0  0  0  0  0  0  0  0  0  0
    3.9560   15.2670   17.7620 C   0  0  0  0  0  0  0  0  0  0  0  0
    5.0100   15.4930   17.5810 H   0  0  0  0  0  0  0  0  0  0  0  0
    3.3330   16.1390   17.5570 H   0  0  0  0  0  0  0  0  0  0  0  0
    3.6480   14.4350   17.1240 H   0  0  0  0  0  0  0  0  0  0  0  0
  1 10  1  0  0  0  0
  1 38  1  0  0  0  0
  2  1  2  0  0  0  0
  3  8  2  0  0  0  0
  3  2  1  0  0  0  0
  4  3  1  0  0  0  0
  5 14  1  0  0  0  0
  5  4  1  0  0  0  0
  6 15  1  0  0  0  0
  6  5  1  0  0  0  0
  6  7  1  0  0  0  0
  7 18  1  0  0  0  0
  7  4  1  0  0  0  0
  8  9  1  0  0  0  0
  9 19  1  0  0  0  0
  9 10  2  0  0  0  0
 10 11  1  0  0  0  0
 12  2  1  0  0  0  0
 13  5  1  0  0  0  0
 16  6  1  0  0  0  0
 17  7  1  0  0  0  0
 19 27  1  0  0  0  0
 20 21  1  0  0  0  0
 20 19  1  0  0  0  0
 21 22  1  0  0  0  0
 22 27  1  0  0  0  0
 22 23  2  0  0  0  0
 23 31  1  0  0  0  0
 24 32  1  0  0  0  0
 24 23  1  0  0  0  0
 25 24  2  0  0  0  0
 26 21  2  0  0  0  0
 26 25  1  0  0  0  0
 27 28  2  0  0  0  0
 29 20  1  0  0  0  0
 30 20  1  0  0  0  0
 33 25  1  0  0  0  0
 34 36  1  0  0  0  0
 34 26  1  0  0  0  0
 35 34  1  0  0  0  0
 37 34  1  0  0  0  0
 38 40  1  0  0  0  0
 38 39  1  1  0  0  0
 40 43  1  0  0  0  0
 40 41  1  0  0  0  0
 42 40  1  0  0  0  0
 44 47  1  0  0  0  0
 44 38  1  0  0  0  0
 45 44  1  0  0  0  0
 46 44  1  0  0  0  0
 47 48  2  0  0  0  0
 48 49  1  0  0  0  0
 50 49  2  0  0  0  0
 51 47  1  0  0  0  0
 51 50  1  0  0  0  0
 52 50  1  0  0  0  0
 53 51  1  0  0  0  0
 54 53  1  0  0  0  0
 55 53  1  0  0  0  0
 56 53  1  0  0  0  0
M  END
>  <MODEL>
12

>  <REMARK>
 VINA RESULT:    -7.424      3.457      8.093
 INTER + INTRA:         -10.124
 INTER:                  -9.013
 INTRA:                  -1.111
 UNBOUND:                -0.097
  Name = 
  7 active torsions:
  status: ('A' for Active; 'I' for Inactive)
    1  A    between atoms: C_1  and  C_2
    2  A    between atoms: C_2  and  C_3
    3  A    between atoms: C_2  and  C_10
    4  A    between atoms: C_3  and  C_4
    5  A    between atoms: N_8  and  C_9
    6  A    between atoms: C_18  and  N_19
    7  A    between atoms: C_26  and  C_27
                            x       y       z     vdW  Elec       q    Type
                         _______ _______ _______ _____ _____    ______ ____

>  <TORSDO>
F 7

$$$$
=
 OpenBabel07192307433D

 56 60  0  0  1  0  0  0  0  0999 V2000
    2.7050    4.2440   20.3790 C   0  0  0  0  0  0  0  0  0  0  0  0
    3.9750    4.3000   19.8030 C   0  0  0  0  0  0  0  0  0  0  0  0
    4.4580    5.5070   19.3050 C   0  0  0  0  0  0  0  0  0  0  0  0
    5.7410    5.5760   18.7400 N   0  0  0  0  0  0  0  0  0  0  0  0
    6.1910    6.6160   17.8570 C   0  0  0  0  0  0  0  0  0  0  0  0
    7.3270    5.6660   17.4610 C   0  0  0  0  0  0  0  0  0  0  0  0
    6.4130    4.5540   17.9910 C   0  0  0  0  0  0  0  0  0  0  0  0
    3.7220    6.6390   19.3700 N   0  0  0  0  0  0  0  0  0  0  0  0
    2.4750    6.6110   19.9130 C   0  0  0  0  0  0  0  0  0  0  0  0
    1.9460    5.4220   20.4130 C   0  0  0  0  0  0  0  0  0  0  0  0
    0.7130    5.3390   20.9270 F   0  0  0  0  0  0  0  0  0  0  0  0
    4.5970    3.4130   19.7410 H   0  0  0  0  0  0  0  0  0  0  0  0
    5.4750    6.8400   17.0600 H   0  0  0  0  0  0  0  0  0  0  0  0
    6.4920    7.5290   18.3770 H   0  0  0  0  0  0  0  0  0  0  0  0
    8.2500    5.8040   18.0340 H   0  0  0  0  0  0  0  0  0  0  0  0
    7.5610    5.6240   16.3940 H   0  0  0  0  0  0  0  0  0  0  0  0
    5.7720    4.0820   17.2390 H   0  0  0  0  0  0  0  0  0  0  0  0
    6.9000    3.8020   18.6150 H   0  0  0  0  0  0  0  0  0  0  0  0
    1.8010    7.8540   19.9160 N   0  0  0  0  0  0  0  0  0  0  0  0
    1.1140    8.2750   21.1300 C   0  0  0  0  0  0  0  0  0  0  0  0
    0.5120    9.5880   20.7440 C   0  0  0  0  0  0  0  0  0  0  0  0
    0.8420    9.8760   19.4230 C   0  0  0  0  0  0  0  0  0  0  0  0
    0.4180   11.0280   18.7870 C   0  0  0  0  0  0  0  0  0  0  0  0
   -0.3700   11.9180   19.5180 C   0  0  0  0  0  0  0  0  0  0  0  0
   -0.7110   11.6390   20.8550 C   0  0  0  0  0  0  0  0  0  0  0  0
   -0.2720   10.4620   21.4920 C   0  0  0  0  0  0  0  0  0  0  0  0
    1.6640    8.7780   18.8890 C   0  0  0  0  0  0  0  0  0  0  0  0
    2.0810    8.8000   17.7490 O   0  0  0  0  0  0  0  0  0  0  0  0
    1.8380    8.4010   21.9420 H   0  0  0  0  0  0  0  0  0  0  0  0
    0.3340    7.5500   21.3870 H   0  0  0  0  0  0  0  0  0  0  0  0
    0.6910   11.2280   17.7550 H   0  0  0  0  0  0  0  0  0  0  0  0
   -0.7230   12.8350   19.0510 H   0  0  0  0  0  0  0  0  0  0  0  0
   -1.3280   12.3560   21.3980 H   0  0  0  0  0  0  0  0  0  0  0  0
   -0.6320   10.1530   22.9200 C   0  0  0  0  0  0  0  0  0  0  0  0
   -1.3970    9.0310   23.0270 F   0  0  0  0  0  0  0  0  0  0  0  0
   -1.3530   11.1520   23.4980 F   0  0  0  0  0  0  0  0  0  0  0  0
    0.4450    9.9500   23.7250 F   0  0  0  0  0  0  0  0  0  0  0  0
    2.0940    2.9590   20.9170 C   0  0  2  0  0  0  0  0  0  0  0  0
    1.3030    3.2440   21.6240 H   0  0  0  0  0  0  0  0  0  0  0  0
    3.0800    2.1090   21.7340 C   0  0  0  0  0  0  0  0  0  0  0  0
    2.9100    2.2430   22.8070 H   0  0  0  0  0  0  0  0  0  0  0  0
    4.1140    2.4010   21.5260 H   0  0  0  0  0  0  0  0  0  0  0  0
    2.9800    1.0410   21.5170 H   0  0  0  0  0  0  0  0  0  0  0  0
    1.4720    2.1640   19.7520 C   0  0  0  0  0  0  0  0  0  0  0  0
    1.2920    1.1220   20.0450 H   0  0  0  0  0  0  0  0  0  0  0  0
    0.4840    2.5740   19.5060 H   0  0  0  0  0  0  0  0  0  0  0  0
    2.3260    2.1790   18.5320 C   0  0  0  0  0  0  0  0  0  0  0  0
    3.3560    1.3930   18.2920 N   0  0  0  0  0  0  0  0  0  0  0  0
    3.8770    1.7330   17.0670 N   0  0  0  0  0  0  0  0  0  0  0  0
    3.1580    2.7220   16.5880 C   0  0  0  0  0  0  0  0  0  0  0  0
    2.1690    3.0330   17.4700 N   0  0  0  0  0  0  0  0  0  0  0  0
    3.3100    3.2220   15.6410 H   0  0  0  0  0  0  0  0  0  0  0  0
    1.1640    4.0490   17.2950 C   0  0  0  0  0  0  0  0  0  0  0  0
    0.1780    3.6020   17.4420 H   0  0  0  0  0  0  0  0  0  0  0  0
    1.2570    4.4590   16.2870 H   0  0  0  0  0  0  0  0  0  0  0  0
    1.3170    4.8430   18.0310 H   0  0  0  0  0  0  0  0  0  0  0  0
  1 10  1  0  0  0  0
  1 38  1  0  0  0  0
  2  1  2  0  0  0  0
  3  8  2  0  0  0  0
  3  2  1  0  0  0  0
  4  3  1  0  0  0  0
  5 14  1  0  0  0  0
  5  4  1  0  0  0  0
  6  5  1  0  0  0  0
  6  7  1  0  0  0  0
  6 15  1  0  0  0  0
  7 18  1  0  0  0  0
  7  4  1  0  0  0  0
  8  9  1  0  0  0  0
  9 19  1  0  0  0  0
  9 10  2  0  0  0  0
 10 11  1  0  0  0  0
 12  2  1  0  0  0  0
 13  5  1  0  0  0  0
 16  6  1  0  0  0  0
 17  7  1  0  0  0  0
 19 20  1  0  0  0  0
 20 30  1  0  0  0  0
 20 29  1  0  0  0  0
 21 20  1  0  0  0  0
 21 26  1  0  0  0  0
 22 21  2  0  0  0  0
 23 22  1  0  0  0  0
 23 24  2  0  0  0  0
 24 25  1  0  0  0  0
 25 33  1  0  0  0  0
 25 26  2  0  0  0  0
 26 34  1  0  0  0  0
 27 22  1  0  0  0  0
 27 19  1  0  0  0  0
 28 27  2  0  0  0  0
 31 23  1  0  0  0  0
 32 24  1  0  0  0  0
 34 35  1  0  0  0  0
 34 36  1  0  0  0  0
 34 37  1  0  0  0  0
 38 39  1  1  0  0  0
 38 40  1  0  0  0  0
 40 41  1  0  0  0  0
 42 40  1  0  0  0  0
 43 40  1  0  0  0  0
 44 45  1  0  0  0  0
 44 38  1  0  0  0  0
 46 44  1  0  0  0  0
 47 44  1  0  0  0  0
 48 47  2  0  0  0  0
 49 48  1  0  0  0  0
 50 49  2  0  0  0  0
 50 51  1  0  0  0  0
 51 47  1  0  0  0  0
 52 50  1  0  0  0  0
 53 54  1  0  0  0  0
 53 51  1  0  0  0  0
 53 56  1  0  0  0  0
 55 53  1  0  0  0  0
M  END
>  <MODEL>
13

>  <REMARK>
 VINA RESULT:    -7.399      1.876      4.394
 INTER + INTRA:         -10.091
 INTER:                  -9.858
 INTRA:                  -0.233
 UNBOUND:                -0.097
  Name = 
  7 active torsions:
  status: ('A' for Active; 'I' for Inactive)
    1  A    between atoms: C_1  and  C_2
    2  A    between atoms: C_2  and  C_3
    3  A    between atoms: C_2  and  C_10
    4  A    between atoms: C_3  and  C_4
    5  A    between atoms: N_8  and  C_9
    6  A    between atoms: C_18  and  N_19
    7  A    between atoms: C_26  and  C_27
                            x       y       z     vdW  Elec       q    Type
                         _______ _______ _______ _____ _____    ______ ____

>  <TORSDO>
F 7

$$$$
=
 OpenBabel07192307433D

 56 60  0  0  1  0  0  0  0  0999 V2000
    0.0010   11.2490   20.4730 C   0  0  0  0  0  0  0  0  0  0  0  0
   -0.9650   11.2990   19.4660 C   0  0  0  0  0  0  0  0  0  0  0  0
   -1.0170   10.2930   18.5050 C   0  0  0  0  0  0  0  0  0  0  0  0
   -1.9960   10.3260   17.4990 N   0  0  0  0  0  0  0  0  0  0  0  0
   -1.9190    9.6050   16.2590 C   0  0  0  0  0  0  0  0  0  0  0  0
   -3.0070   10.5530   15.7420 C   0  0  0  0  0  0  0  0  0  0  0  0
   -2.5500   11.4890   16.8690 C   0  0  0  0  0  0  0  0  0  0  0  0
   -0.1520    9.2550   18.5260 N   0  0  0  0  0  0  0  0  0  0  0  0
    0.8080    9.1870   19.4880 C   0  0  0  0  0  0  0  0  0  0  0  0
    0.9060   10.1790   20.4630 C   0  0  0  0  0  0  0  0  0  0  0  0
    1.8530   10.1730   21.4080 F   0  0  0  0  0  0  0  0  0  0  0  0
   -1.6810   12.1130   19.4220 H   0  0  0  0  0  0  0  0  0  0  0  0
   -0.9460    9.7050   15.7670 H   0  0  0  0  0  0  0  0  0  0  0  0
   -2.2040    8.5540   16.3470 H   0  0  0  0  0  0  0  0  0  0  0  0
   -4.0280   10.1720   15.8580 H   0  0  0  0  0  0  0  0  0  0  0  0
   -2.8680   10.9270   14.7250 H   0  0  0  0  0  0  0  0  0  0  0  0
   -1.7900   12.2240   16.5830 H   0  0  0  0  0  0  0  0  0  0  0  0
   -3.3500   11.9600   17.4430 H   0  0  0  0  0  0  0  0  0  0  0  0
    1.6590    8.0610   19.4000 N   0  0  0  0  0  0  0  0  0  0  0  0
    2.6460    8.0120   18.3290 C   0  0  0  0  0  0  0  0  0  0  0  0
    3.3160    6.6930   18.5430 C   0  0  0  0  0  0  0  0  0  0  0  0
    2.7510    6.0620   19.6470 C   0  0  0  0  0  0  0  0  0  0  0  0
    3.1660    4.8180   20.0840 C   0  0  0  0  0  0  0  0  0  0  0  0
    4.1910    4.1920   19.3740 C   0  0  0  0  0  0  0  0  0  0  0  0
    4.7720    4.8190   18.2550 C   0  0  0  0  0  0  0  0  0  0  0  0
    4.3400    6.0870   17.8210 C   0  0  0  0  0  0  0  0  0  0  0  0
    1.6970    6.9280   20.2000 C   0  0  0  0  0  0  0  0  0  0  0  0
    1.0540    6.5940   21.1750 O   0  0  0  0  0  0  0  0  0  0  0  0
    3.3600    8.8350   18.4430 H   0  0  0  0  0  0  0  0  0  0  0  0
    2.1420    8.0390   17.3570 H   0  0  0  0  0  0  0  0  0  0  0  0
    2.7070    4.3490   20.9490 H   0  0  0  0  0  0  0  0  0  0  0  0
    4.5440    3.2110   19.6870 H   0  0  0  0  0  0  0  0  0  0  0  0
    5.5710    4.3020   17.7220 H   0  0  0  0  0  0  0  0  0  0  0  0
    4.9530    6.7660   16.6260 C   0  0  0  0  0  0  0  0  0  0  0  0
    5.5800    5.8840   15.7980 F   0  0  0  0  0  0  0  0  0  0  0  0
    5.8980    7.6790   16.9800 F   0  0  0  0  0  0  0  0  0  0  0  0
    4.0550    7.4320   15.8530 F   0  0  0  0  0  0  0  0  0  0  0  0
    0.1440   12.3250   21.5390 C   0  0  2  0  0  0  0  0  0  0  0  0
    1.0560   12.1010   22.1090 H   0  0  0  0  0  0  0  0  0  0  0  0
   -0.9930   12.3150   22.5730 C   0  0  0  0  0  0  0  0  0  0  0  0
   -1.2210   11.2920   22.8890 H   0  0  0  0  0  0  0  0  0  0  0  0
   -1.9100   12.7410   22.1520 H   0  0  0  0  0  0  0  0  0  0  0  0
   -0.7360   12.8850   23.4720 H   0  0  0  0  0  0  0  0  0  0  0  0
    0.2950   13.7000   20.8590 C   0  0  0  0  0  0  0  0  0  0  0  0
   -0.2350   13.7190   19.8980 H   0  0  0  0  0  0  0  0  0  0  0  0
   -0.1820   14.4740   21.4720 H   0  0  0  0  0  0  0  0  0  0  0  0
    1.7200   14.0670   20.6290 C   0  0  0  0  0  0  0  0  0  0  0  0
    2.5420   14.5890   21.5160 N   0  0  0  0  0  0  0  0  0  0  0  0
    3.7580   14.7890   20.9070 N   0  0  0  0  0  0  0  0  0  0  0  0
    3.6500   14.3880   19.6610 C   0  0  0  0  0  0  0  0  0  0  0  0
    2.3900   13.9230   19.4410 N   0  0  0  0  0  0  0  0  0  0  0  0
    4.4300   14.4140   18.9130 H   0  0  0  0  0  0  0  0  0  0  0  0
    1.8900   13.3790   18.2050 C   0  0  0  0  0  0  0  0  0  0  0  0
    2.5120   13.7390   17.3820 H   0  0  0  0  0  0  0  0  0  0  0  0
    0.8550   13.7020   18.0780 H   0  0  0  0  0  0  0  0  0  0  0  0
    1.9340   12.2880   18.2440 H   0  0  0  0  0  0  0  0  0  0  0  0
  1 38  1  0  0  0  0
  2  1  2  0  0  0  0
  3  8  2  0  0  0  0
  3  2  1  0  0  0  0
  4  3  1  0  0  0  0
  5 14  1  0  0  0  0
  5  4  1  0  0  0  0
  6 15  1  0  0  0  0
  6  5  1  0  0  0  0
  6  7  1  0  0  0  0
  7 18  1  0  0  0  0
  7  4  1  0  0  0  0
  8  9  1  0  0  0  0
  9 10  2  0  0  0  0
 10  1  1  0  0  0  0
 10 11  1  0  0  0  0
 12  2  1  0  0  0  0
 13  5  1  0  0  0  0
 16  6  1  0  0  0  0
 17  7  1  0  0  0  0
 19  9  1  0  0  0  0
 19 27  1  0  0  0  0
 20 29  1  0  0  0  0
 20 21  1  0  0  0  0
 20 19  1  0  0  0  0
 21 22  1  0  0  0  0
 22 23  2  0  0  0  0
 22 27  1  0  0  0  0
 23 31  1  0  0  0  0
 24 32  1  0  0  0  0
 24 23  1  0  0  0  0
 25 24  2  0  0  0  0
 26 25  1  0  0  0  0
 26 21  2  0  0  0  0
 27 28  2  0  0  0  0
 30 20  1  0  0  0  0
 33 25  1  0  0  0  0
 34 36  1  0  0  0  0
 34 26  1  0  0  0  0
 35 34  1  0  0  0  0
 37 34  1  0  0  0  0
 38 39  1  1  0  0  0
 38 40  1  0  0  0  0
 40 41  1  0  0  0  0
 40 43  1  0  0  0  0
 42 40  1  0  0  0  0
 44 46  1  0  0  0  0
 44 38  1  0  0  0  0
 45 44  1  0  0  0  0
 47 44  1  0  0  0  0
 47 48  2  0  0  0  0
 49 48  1  0  0  0  0
 50 49  2  0  0  0  0
 51 50  1  0  0  0  0
 51 47  1  0  0  0  0
 52 50  1  0  0  0  0
 53 56  1  0  0  0  0
 53 51  1  0  0  0  0
 54 53  1  0  0  0  0
 55 53  1  0  0  0  0
M  END
>  <MODEL>
14

>  <REMARK>
 VINA RESULT:    -7.377      3.061      8.123
 INTER + INTRA:         -10.061
 INTER:                  -8.657
 INTRA:                  -1.405
 UNBOUND:                -0.097
  Name = 
  7 active torsions:
  status: ('A' for Active; 'I' for Inactive)
    1  A    between atoms: C_1  and  C_2
    2  A    between atoms: C_2  and  C_3
    3  A    between atoms: C_2  and  C_10
    4  A    between atoms: C_3  and  C_4
    5  A    between atoms: N_8  and  C_9
    6  A    between atoms: C_18  and  N_19
    7  A    between atoms: C_26  and  C_27
                            x       y       z     vdW  Elec       q    Type
                         _______ _______ _______ _____ _____    ______ ____

>  <TORSDO>
F 7

$$$$
=
 OpenBabel07192307433D

 56 60  0  0  1  0  0  0  0  0999 V2000
    0.2150   10.6240   21.4580 C   0  0  0  0  0  0  0  0  0  0  0  0
    0.5610   11.7320   20.6820 C   0  0  0  0  0  0  0  0  0  0  0  0
    1.3380   11.5610   19.5390 C   0  0  0  0  0  0  0  0  0  0  0  0
    1.6760   12.6670   18.7420 N   0  0  0  0  0  0  0  0  0  0  0  0
    2.7630   12.6950   17.8030 C   0  0  0  0  0  0  0  0  0  0  0  0
    2.6380   14.2230   17.8400 C   0  0  0  0  0  0  0  0  0  0  0  0
    1.9330   14.0060   19.1860 C   0  0  0  0  0  0  0  0  0  0  0  0
    1.7640   10.3370   19.1550 N   0  0  0  0  0  0  0  0  0  0  0  0
    1.4530    9.2420   19.9000 C   0  0  0  0  0  0  0  0  0  0  0  0
    0.6880    9.3670   21.0590 C   0  0  0  0  0  0  0  0  0  0  0  0
    0.3850    8.3250   21.8410 F   0  0  0  0  0  0  0  0  0  0  0  0
    0.2300   12.7280   20.9550 H   0  0  0  0  0  0  0  0  0  0  0  0
    3.6950   12.2960   18.2140 H   0  0  0  0  0  0  0  0  0  0  0  0
    2.5250   12.2210   16.8470 H   0  0  0  0  0  0  0  0  0  0  0  0
    1.9980   14.6420   17.0570 H   0  0  0  0  0  0  0  0  0  0  0  0
    3.5800   14.7750   17.8790 H   0  0  0  0  0  0  0  0  0  0  0  0
    2.5860   14.0490   20.0640 H   0  0  0  0  0  0  0  0  0  0  0  0
    1.0290   14.5970   19.3440 H   0  0  0  0  0  0  0  0  0  0  0  0
    1.9640    8.0210   19.4030 N   0  0  0  0  0  0  0  0  0  0  0  0
    1.6980    6.7970   20.1470 C   0  0  0  0  0  0  0  0  0  0  0  0
    2.4050    5.7510   19.3470 C   0  0  0  0  0  0  0  0  0  0  0  0
    3.0110    6.3440   18.2440 C   0  0  0  0  0  0  0  0  0  0  0  0
    3.7450    5.6210   17.3220 C   0  0  0  0  0  0  0  0  0  0  0  0
    3.8690    4.2470   17.5280 C   0  0  0  0  0  0  0  0  0  0  0  0
    3.2610    3.6330   18.6410 C   0  0  0  0  0  0  0  0  0  0  0  0
    2.5160    4.3810   19.5720 C   0  0  0  0  0  0  0  0  0  0  0  0
    2.7330    7.7890   18.2710 C   0  0  0  0  0  0  0  0  0  0  0  0
    3.1560    8.5290   17.4050 O   0  0  0  0  0  0  0  0  0  0  0  0
    0.6200    6.6050   20.1740 H   0  0  0  0  0  0  0  0  0  0  0  0
    2.1260    6.8720   21.1520 H   0  0  0  0  0  0  0  0  0  0  0  0
    4.2070    6.1110   16.4690 H   0  0  0  0  0  0  0  0  0  0  0  0
    4.4400    3.6450   16.8250 H   0  0  0  0  0  0  0  0  0  0  0  0
    3.3780    2.5570   18.7730 H   0  0  0  0  0  0  0  0  0  0  0  0
    1.8630    3.7350   20.7640 C   0  0  0  0  0  0  0  0  0  0  0  0
    0.5180    3.9520   20.7940 F   0  0  0  0  0  0  0  0  0  0  0  0
    2.3440    4.2200   21.9410 F   0  0  0  0  0  0  0  0  0  0  0  0
    2.0270    2.3870   20.8160 F   0  0  0  0  0  0  0  0  0  0  0  0
   -0.6030   10.7310   22.7370 C   0  0  2  0  0  0  0  0  0  0  0  0
    0.0050   11.2810   23.4690 H   0  0  0  0  0  0  0  0  0  0  0  0
   -0.8930    9.3720   23.3910 C   0  0  0  0  0  0  0  0  0  0  0  0
   -1.3190    9.5050   24.3910 H   0  0  0  0  0  0  0  0  0  0  0  0
    0.0250    8.7850   23.5010 H   0  0  0  0  0  0  0  0  0  0  0  0
   -1.6050    8.7790   22.8090 H   0  0  0  0  0  0  0  0  0  0  0  0
   -1.8940   11.5240   22.4520 C   0  0  0  0  0  0  0  0  0  0  0  0
   -1.9810   11.7530   21.3830 H   0  0  0  0  0  0  0  0  0  0  0  0
   -2.7700   10.9080   22.6920 H   0  0  0  0  0  0  0  0  0  0  0  0
   -1.9630   12.7950   23.2240 C   0  0  0  0  0  0  0  0  0  0  0  0
   -1.0120   13.7020   23.3180 N   0  0  0  0  0  0  0  0  0  0  0  0
   -1.4650   14.7150   24.1280 N   0  0  0  0  0  0  0  0  0  0  0  0
   -2.6810   14.4030   24.5140 C   0  0  0  0  0  0  0  0  0  0  0  0
   -3.0390   13.2090   23.9680 N   0  0  0  0  0  0  0  0  0  0  0  0
   -3.3160   14.9920   25.1620 H   0  0  0  0  0  0  0  0  0  0  0  0
   -4.3030   12.5420   24.1390 C   0  0  0  0  0  0  0  0  0  0  0  0
   -5.0310   13.2560   24.5330 H   0  0  0  0  0  0  0  0  0  0  0  0
   -4.1650   11.7090   24.8310 H   0  0  0  0  0  0  0  0  0  0  0  0
   -4.6490   12.1660   23.1730 H   0  0  0  0  0  0  0  0  0  0  0  0
  1 38  1  0  0  0  0
  2 12  1  0  0  0  0
  2  1  2  0  0  0  0
  3  2  1  0  0  0  0
  4  7  1  0  0  0  0
  4  3  1  0  0  0  0
  5  6  1  0  0  0  0
  5 13  1  0  0  0  0
  5  4  1  0  0  0  0
  6 16  1  0  0  0  0
  6  7  1  0  0  0  0
  7 18  1  0  0  0  0
  7 17  1  0  0  0  0
  8  3  2  0  0  0  0
  8  9  1  0  0  0  0
  9 10  2  0  0  0  0
 10  1  1  0  0  0  0
 10 11  1  0  0  0  0
 14  5  1  0  0  0  0
 15  6  1  0  0  0  0
 19  9  1  0  0  0  0
 19 20  1  0  0  0  0
 20 29  1  0  0  0  0
 20 30  1  0  0  0  0
 21 26  1  0  0  0  0
 21 20  1  0  0  0  0
 22 27  1  0  0  0  0
 22 21  2  0  0  0  0
 23 24  2  0  0  0  0
 23 22  1  0  0  0  0
 24 25  1  0  0  0  0
 25 33  1  0  0  0  0
 25 26  2  0  0  0  0
 26 34  1  0  0  0  0
 27 19  1  0  0  0  0
 28 27  2  0  0  0  0
 31 23  1  0  0  0  0
 32 24  1  0  0  0  0
 34 35  1  0  0  0  0
 34 37  1  0  0  0  0
 34 36  1  0  0  0  0
 38 40  1  0  0  0  0
 38 39  1  1  0  0  0
 40 42  1  0  0  0  0
 40 41  1  0  0  0  0
 43 40  1  0  0  0  0
 44 46  1  0  0  0  0
 44 38  1  0  0  0  0
 44 47  1  0  0  0  0
 45 44  1  0  0  0  0
 47 48  2  0  0  0  0
 47 51  1  0  0  0  0
 48 49  1  0  0  0  0
 49 50  2  0  0  0  0
 50 52  1  0  0  0  0
 51 53  1  0  0  0  0
 51 50  1  0  0  0  0
 53 54  1  0  0  0  0
 53 55  1  0  0  0  0
 56 53  1  0  0  0  0
M  END
>  <MODEL>
15

>  <REMARK>
 VINA RESULT:    -7.063      3.648      8.876
 INTER + INTRA:          -9.636
 INTER:                 -10.332
 INTRA:                   0.696
 UNBOUND:                -0.097
  Name = 
  7 active torsions:
  status: ('A' for Active; 'I' for Inactive)
    1  A    between atoms: C_1  and  C_2
    2  A    between atoms: C_2  and  C_3
    3  A    between atoms: C_2  and  C_10
    4  A    between atoms: C_3  and  C_4
    5  A    between atoms: N_8  and  C_9
    6  A    between atoms: C_18  and  N_19
    7  A    between atoms: C_26  and  C_27
                            x       y       z     vdW  Elec       q    Type
                         _______ _______ _______ _____ _____    ______ ____

>  <TORSDO>
F 7

$$$$
=
 OpenBabel07192307433D

 56 60  0  0  1  0  0  0  0  0999 V2000
   -1.2570   12.0690   20.1570 C   0  0  0  0  0  0  0  0  0  0  0  0
   -0.4110   13.1170   20.5220 C   0  0  0  0  0  0  0  0  0  0  0  0
    0.9690   12.9570   20.4310 C   0  0  0  0  0  0  0  0  0  0  0  0
    1.8280   14.0120   20.7800 N   0  0  0  0  0  0  0  0  0  0  0  0
    3.2180   13.8600   21.1100 C   0  0  0  0  0  0  0  0  0  0  0  0
    3.1310   15.2560   21.7360 C   0  0  0  0  0  0  0  0  0  0  0  0
    1.6210   14.9940   21.8040 C   0  0  0  0  0  0  0  0  0  0  0  0
    1.5160   11.8020   19.9890 N   0  0  0  0  0  0  0  0  0  0  0  0
    0.7160   10.7600   19.6400 C   0  0  0  0  0  0  0  0  0  0  0  0
   -0.6720   10.8700   19.7260 C   0  0  0  0  0  0  0  0  0  0  0  0
   -1.4980    9.8620   19.4250 F   0  0  0  0  0  0  0  0  0  0  0  0
   -0.8140   14.0600   20.8740 H   0  0  0  0  0  0  0  0  0  0  0  0
    3.4030   13.0460   21.8170 H   0  0  0  0  0  0  0  0  0  0  0  0
    3.8660   13.7690   20.2340 H   0  0  0  0  0  0  0  0  0  0  0  0
    3.4170   16.0710   21.0620 H   0  0  0  0  0  0  0  0  0  0  0  0
    3.6380   15.3790   22.6960 H   0  0  0  0  0  0  0  0  0  0  0  0
    1.2670   14.5610   22.7460 H   0  0  0  0  0  0  0  0  0  0  0  0
    0.9840   15.8240   21.4940 H   0  0  0  0  0  0  0  0  0  0  0  0
    1.4030    9.6040   19.2020 N   0  0  0  0  0  0  0  0  0  0  0  0
    1.2220    8.3610   19.9400 C   0  0  0  0  0  0  0  0  0  0  0  0
    2.1080    7.4000   19.2140 C   0  0  0  0  0  0  0  0  0  0  0  0
    2.7280    8.0550   18.1540 C   0  0  0  0  0  0  0  0  0  0  0  0
    3.6130    7.4180   17.3040 C   0  0  0  0  0  0  0  0  0  0  0  0
    3.8780    6.0690   17.5400 C   0  0  0  0  0  0  0  0  0  0  0  0
    3.2580    5.3940   18.6090 C   0  0  0  0  0  0  0  0  0  0  0  0
    2.3580    6.0540   19.4670 C   0  0  0  0  0  0  0  0  0  0  0  0
    2.2820    9.4580   18.1390 C   0  0  0  0  0  0  0  0  0  0  0  0
    2.6850   10.2380   17.2990 O   0  0  0  0  0  0  0  0  0  0  0  0
    0.1740    8.0440   19.8850 H   0  0  0  0  0  0  0  0  0  0  0  0
    1.5550    8.4900   20.9760 H   0  0  0  0  0  0  0  0  0  0  0  0
    4.0820    7.9550   16.4850 H   0  0  0  0  0  0  0  0  0  0  0  0
    4.5710    5.5340   16.8920 H   0  0  0  0  0  0  0  0  0  0  0  0
    3.4880    4.3390   18.7650 H   0  0  0  0  0  0  0  0  0  0  0  0
    1.6900    5.3430   20.6120 C   0  0  0  0  0  0  0  0  0  0  0  0
    2.5920    4.7980   21.4760 F   0  0  0  0  0  0  0  0  0  0  0  0
    0.9070    4.3120   20.1930 F   0  0  0  0  0  0  0  0  0  0  0  0
    0.8890    6.1440   21.3640 F   0  0  0  0  0  0  0  0  0  0  0  0
   -2.7730   12.1530   20.2570 C   0  0  2  0  0  0  0  0  0  0  0  0
   -3.1090   11.2970   20.8590 H   0  0  0  0  0  0  0  0  0  0  0  0
   -3.4840   12.0000   18.9040 C   0  0  0  0  0  0  0  0  0  0  0  0
   -3.4630   10.9570   18.5700 H   0  0  0  0  0  0  0  0  0  0  0  0
   -2.9920   12.6010   18.1320 H   0  0  0  0  0  0  0  0  0  0  0  0
   -4.5330   12.3070   18.9530 H   0  0  0  0  0  0  0  0  0  0  0  0
   -3.1640   13.4620   20.9720 C   0  0  0  0  0  0  0  0  0  0  0  0
   -2.3000   14.1310   21.0580 H   0  0  0  0  0  0  0  0  0  0  0  0
   -3.9010   14.0090   20.3710 H   0  0  0  0  0  0  0  0  0  0  0  0
   -3.7240   13.2220   22.3310 C   0  0  0  0  0  0  0  0  0  0  0  0
   -4.9160   12.7340   22.6080 N   0  0  0  0  0  0  0  0  0  0  0  0
   -5.0490   12.6790   23.9750 N   0  0  0  0  0  0  0  0  0  0  0  0
   -3.9370   13.1380   24.5020 C   0  0  0  0  0  0  0  0  0  0  0  0
   -3.0740   13.4870   23.5100 N   0  0  0  0  0  0  0  0  0  0  0  0
   -3.7220   13.2300   25.5580 H   0  0  0  0  0  0  0  0  0  0  0  0
   -1.7450   14.0120   23.6870 C   0  0  0  0  0  0  0  0  0  0  0  0
   -1.0290   13.1880   23.6420 H   0  0  0  0  0  0  0  0  0  0  0  0
   -1.6960   14.5150   24.6550 H   0  0  0  0  0  0  0  0  0  0  0  0
   -1.5270   14.7260   22.8890 H   0  0  0  0  0  0  0  0  0  0  0  0
  1 38  1  0  0  0  0
  1  2  1  0  0  0  0
  2 12  1  0  0  0  0
  3  2  2  0  0  0  0
  3  4  1  0  0  0  0
  4  5  1  0  0  0  0
  4  7  1  0  0  0  0
  5  6  1  0  0  0  0
  5 13  1  0  0  0  0
  6  7  1  0  0  0  0
  6 16  1  0  0  0  0
  7 17  1  0  0  0  0
  8  3  1  0  0  0  0
  9 10  1  0  0  0  0
  9  8  2  0  0  0  0
 10  1  2  0  0  0  0
 11 10  1  0  0  0  0
 14  5  1  0  0  0  0
 15  6  1  0  0  0  0
 18  7  1  0  0  0  0
 19  9  1  0  0  0  0
 19 20  1  0  0  0  0
 20 30  1  0  0  0  0
 21 26  1  0  0  0  0
 21 20  1  0  0  0  0
 22 21  2  0  0  0  0
 23 24  2  0  0  0  0
 23 22  1  0  0  0  0
 24 25  1  0  0  0  0
 25 33  1  0  0  0  0
 25 26  2  0  0  0  0
 26 34  1  0  0  0  0
 27 22  1  0  0  0  0
 27 19  1  0  0  0  0
 28 27  2  0  0  0  0
 29 20  1  0  0  0  0
 31 23  1  0  0  0  0
 32 24  1  0  0  0  0
 34 37  1  0  0  0  0
 34 35  1  0  0  0  0
 36 34  1  0  0  0  0
 38 39  1  1  0  0  0
 38 44  1  0  0  0  0
 40 43  1  0  0  0  0
 40 38  1  0  0  0  0
 41 40  1  0  0  0  0
 42 40  1  0  0  0  0
 44 45  1  0  0  0  0
 44 47  1  0  0  0  0
 46 44  1  0  0  0  0
 47 48  2  0  0  0  0
 47 51  1  0  0  0  0
 48 49  1  0  0  0  0
 49 50  2  0  0  0  0
 50 52  1  0  0  0  0
 51 53  1  0  0  0  0
 51 50  1  0  0  0  0
 53 55  1  0  0  0  0
 54 53  1  0  0  0  0
 56 53  1  0  0  0  0
M  END
>  <MODEL>
16

>  <REMARK>
 VINA RESULT:    -7.019      3.987      9.239
 INTER + INTRA:          -9.577
 INTER:                  -8.957
 INTRA:                  -0.620
 UNBOUND:                -0.097
  Name = 
  7 active torsions:
  status: ('A' for Active; 'I' for Inactive)
    1  A    between atoms: C_1  and  C_2
    2  A    between atoms: C_2  and  C_3
    3  A    between atoms: C_2  and  C_10
    4  A    between atoms: C_3  and  C_4
    5  A    between atoms: N_8  and  C_9
    6  A    between atoms: C_18  and  N_19
    7  A    between atoms: C_26  and  C_27
                            x       y       z     vdW  Elec       q    Type
                         _______ _______ _______ _____ _____    ______ ____

>  <TORSDO>
F 7

$$$$
=
 OpenBabel07192307433D

 56 60  0  0  1  0  0  0  0  0999 V2000
    0.7640    9.6340   18.6770 C   0  0  0  0  0  0  0  0  0  0  0  0
   -0.1800    9.7020   17.6510 C   0  0  0  0  0  0  0  0  0  0  0  0
   -1.2590   10.5750   17.7600 C   0  0  0  0  0  0  0  0  0  0  0  0
   -2.2040   10.6630   16.7260 N   0  0  0  0  0  0  0  0  0  0  0  0
   -3.5300   11.1960   16.8720 C   0  0  0  0  0  0  0  0  0  0  0  0
   -3.8660   10.4850   15.5570 C   0  0  0  0  0  0  0  0  0  0  0  0
   -2.6510    9.6030   15.8690 C   0  0  0  0  0  0  0  0  0  0  0  0
   -1.4150   11.3700   18.8420 N   0  0  0  0  0  0  0  0  0  0  0  0
   -0.5180   11.3140   19.8630 C   0  0  0  0  0  0  0  0  0  0  0  0
    0.5720   10.4460   19.8040 C   0  0  0  0  0  0  0  0  0  0  0  0
    1.4620   10.3330   20.7960 F   0  0  0  0  0  0  0  0  0  0  0  0
   -0.0830    9.0850   16.7650 H   0  0  0  0  0  0  0  0  0  0  0  0
   -4.0510   10.8100   17.7540 H   0  0  0  0  0  0  0  0  0  0  0  0
   -3.5650   12.2880   16.8470 H   0  0  0  0  0  0  0  0  0  0  0  0
   -3.7520   11.1110   14.6650 H   0  0  0  0  0  0  0  0  0  0  0  0
   -4.8320    9.9740   15.5260 H   0  0  0  0  0  0  0  0  0  0  0  0
   -2.8750    8.6790   16.4130 H   0  0  0  0  0  0  0  0  0  0  0  0
   -1.9820    9.4070   15.0290 H   0  0  0  0  0  0  0  0  0  0  0  0
   -0.7920   12.1850   20.9430 N   0  0  0  0  0  0  0  0  0  0  0  0
   -2.0410   12.0200   21.6750 C   0  0  0  0  0  0  0  0  0  0  0  0
   -1.9850   13.1120   22.6950 C   0  0  0  0  0  0  0  0  0  0  0  0
   -0.7990   13.8230   22.5460 C   0  0  0  0  0  0  0  0  0  0  0  0
   -0.4730   14.9000   23.3500 C   0  0  0  0  0  0  0  0  0  0  0  0
   -1.3850   15.2670   24.3390 C   0  0  0  0  0  0  0  0  0  0  0  0
   -2.5890   14.5560   24.5020 C   0  0  0  0  0  0  0  0  0  0  0  0
   -2.9090   13.4610   23.6760 C   0  0  0  0  0  0  0  0  0  0  0  0
   -0.0320   13.2380   21.4340 C   0  0  0  0  0  0  0  0  0  0  0  0
    1.0480   13.6870   21.1080 O   0  0  0  0  0  0  0  0  0  0  0  0
   -2.0630   11.0360   22.1570 H   0  0  0  0  0  0  0  0  0  0  0  0
   -2.8900   12.1630   20.9990 H   0  0  0  0  0  0  0  0  0  0  0  0
    0.4610   15.4360   23.2110 H   0  0  0  0  0  0  0  0  0  0  0  0
   -1.1630   16.1100   24.9910 H   0  0  0  0  0  0  0  0  0  0  0  0
   -3.2800   14.8690   25.2850 H   0  0  0  0  0  0  0  0  0  0  0  0
   -4.1940   12.6950   23.8410 C   0  0  0  0  0  0  0  0  0  0  0  0
   -5.1290   13.4000   24.5350 F   0  0  0  0  0  0  0  0  0  0  0  0
   -4.0170   11.5330   24.5280 F   0  0  0  0  0  0  0  0  0  0  0  0
   -4.7820   12.3510   22.6640 F   0  0  0  0  0  0  0  0  0  0  0  0
    1.9530    8.6850   18.6490 C   0  0  2  0  0  0  0  0  0  0  0  0
    2.3630    8.6420   19.6670 H   0  0  0  0  0  0  0  0  0  0  0  0
    3.1100    9.1820   17.7690 C   0  0  0  0  0  0  0  0  0  0  0  0
    3.9970    8.5530   17.8990 H   0  0  0  0  0  0  0  0  0  0  0  0
    3.3930   10.2060   18.0350 H   0  0  0  0  0  0  0  0  0  0  0  0
    2.8530    9.1680   16.7050 H   0  0  0  0  0  0  0  0  0  0  0  0
    1.4740    7.2800   18.2340 C   0  0  0  0  0  0  0  0  0  0  0  0
    0.5450    7.0170   18.7550 H   0  0  0  0  0  0  0  0  0  0  0  0
    1.2250    7.2700   17.1660 H   0  0  0  0  0  0  0  0  0  0  0  0
    2.4920    6.2280   18.5090 C   0  0  0  0  0  0  0  0  0  0  0  0
    3.4960    5.8920   17.7240 N   0  0  0  0  0  0  0  0  0  0  0  0
    4.1930    4.8760   18.3330 N   0  0  0  0  0  0  0  0  0  0  0  0
    3.5980    4.6110   19.4730 C   0  0  0  0  0  0  0  0  0  0  0  0
    2.5280    5.4370   19.6290 N   0  0  0  0  0  0  0  0  0  0  0  0
    3.8980    3.8590   20.1900 H   0  0  0  0  0  0  0  0  0  0  0  0
    1.6360    5.4670   20.7590 C   0  0  0  0  0  0  0  0  0  0  0  0
    1.3500    6.5020   20.9590 H   0  0  0  0  0  0  0  0  0  0  0  0
    2.1520    5.0360   21.6200 H   0  0  0  0  0  0  0  0  0  0  0  0
    0.7430    4.8790   20.5330 H   0  0  0  0  0  0  0  0  0  0  0  0
  1 10  1  0  0  0  0
  2  3  1  0  0  0  0
  2  1  2  0  0  0  0
  3  8  2  0  0  0  0
  4  5  1  0  0  0  0
  4  3  1  0  0  0  0
  5 13  1  0  0  0  0
  6  7  1  0  0  0  0
  6  5  1  0  0  0  0
  7 17  1  0  0  0  0
  7  4  1  0  0  0  0
  8  9  1  0  0  0  0
  9 19  1  0  0  0  0
 10  9  2  0  0  0  0
 10 11  1  0  0  0  0
 12  2  1  0  0  0  0
 14  5  1  0  0  0  0
 15  6  1  0  0  0  0
 16  6  1  0  0  0  0
 18  7  1  0  0  0  0
 19 27  1  0  0  0  0
 19 20  1  0  0  0  0
 20 29  1  0  0  0  0
 20 21  1  0  0  0  0
 21 26  1  0  0  0  0
 22 21  2  0  0  0  0
 22 23  1  0  0  0  0
 23 24  2  0  0  0  0
 24 25  1  0  0  0  0
 24 32  1  0  0  0  0
 25 33  1  0  0  0  0
 26 34  1  0  0  0  0
 26 25  2  0  0  0  0
 27 22  1  0  0  0  0
 28 27  2  0  0  0  0
 30 20  1  0  0  0  0
 31 23  1  0  0  0  0
 34 36  1  0  0  0  0
 34 35  1  0  0  0  0
 37 34  1  0  0  0  0
 38  1  1  0  0  0  0
 38 39  1  1  0  0  0
 40 41  1  0  0  0  0
 40 42  1  0  0  0  0
 40 38  1  0  0  0  0
 43 40  1  0  0  0  0
 44 47  1  0  0  0  0
 44 38  1  0  0  0  0
 44 45  1  0  0  0  0
 46 44  1  0  0  0  0
 47 51  1  0  0  0  0
 48 49  1  0  0  0  0
 48 47  2  0  0  0  0
 49 50  2  0  0  0  0
 50 51  1  0  0  0  0
 50 52  1  0  0  0  0
 51 53  1  0  0  0  0
 53 54  1  0  0  0  0
 53 55  1  0  0  0  0
 56 53  1  0  0  0  0
M  END
>  <MODEL>
17

>  <REMARK>
 VINA RESULT:    -6.995      3.480      6.383
 INTER + INTRA:          -9.545
 INTER:                  -8.576
 INTRA:                  -0.969
 UNBOUND:                -0.097
  Name = 
  7 active torsions:
  status: ('A' for Active; 'I' for Inactive)
    1  A    between atoms: C_1  and  C_2
    2  A    between atoms: C_2  and  C_3
    3  A    between atoms: C_2  and  C_10
    4  A    between atoms: C_3  and  C_4
    5  A    between atoms: N_8  and  C_9
    6  A    between atoms: C_18  and  N_19
    7  A    between atoms: C_26  and  C_27
                            x       y       z     vdW  Elec       q    Type
                         _______ _______ _______ _____ _____    ______ ____

>  <TORSDO>
F 7

$$$$
=
 OpenBabel07192307433D

 56 60  0  0  1  0  0  0  0  0999 V2000
    4.4220    5.9470   16.9580 C   0  0  0  0  0  0  0  0  0  0  0  0
    4.0150    4.6240   17.1350 C   0  0  0  0  0  0  0  0  0  0  0  0
    2.9900    4.3290   18.0310 C   0  0  0  0  0  0  0  0  0  0  0  0
    2.5610    3.0030   18.2030 N   0  0  0  0  0  0  0  0  0  0  0  0
    1.8260    2.5220   19.3400 C   0  0  0  0  0  0  0  0  0  0  0  0
    2.2370    1.1130   18.8980 C   0  0  0  0  0  0  0  0  0  0  0  0
    3.3660    1.8180   18.1350 C   0  0  0  0  0  0  0  0  0  0  0  0
    2.3700    5.3020   18.7350 N   0  0  0  0  0  0  0  0  0  0  0  0
    2.7550    6.5980   18.5920 C   0  0  0  0  0  0  0  0  0  0  0  0
    3.7860    6.9390   17.7170 C   0  0  0  0  0  0  0  0  0  0  0  0
    4.2220    8.1950   17.5670 F   0  0  0  0  0  0  0  0  0  0  0  0
    4.4840    3.8180   16.5820 H   0  0  0  0  0  0  0  0  0  0  0  0
    2.2510    2.8510   20.2940 H   0  0  0  0  0  0  0  0  0  0  0  0
    0.7580    2.7440   19.2930 H   0  0  0  0  0  0  0  0  0  0  0  0
    1.5040    0.6100   18.2580 H   0  0  0  0  0  0  0  0  0  0  0  0
    2.5510    0.4370   19.6970 H   0  0  0  0  0  0  0  0  0  0  0  0
    4.3100    1.9090   18.6820 H   0  0  0  0  0  0  0  0  0  0  0  0
    3.5390    1.4630   17.1170 H   0  0  0  0  0  0  0  0  0  0  0  0
    2.0400    7.5220   19.3880 N   0  0  0  0  0  0  0  0  0  0  0  0
    1.6800    8.8110   18.8110 C   0  0  0  0  0  0  0  0  0  0  0  0
    0.9780    9.5040   19.9350 C   0  0  0  0  0  0  0  0  0  0  0  0
    0.9460    8.6660   21.0450 C   0  0  0  0  0  0  0  0  0  0  0  0
    0.3640    9.0420   22.2420 C   0  0  0  0  0  0  0  0  0  0  0  0
   -0.2050   10.3130   22.3130 C   0  0  0  0  0  0  0  0  0  0  0  0
   -0.1800   11.1710   21.1970 C   0  0  0  0  0  0  0  0  0  0  0  0
    0.4160   10.7770   19.9840 C   0  0  0  0  0  0  0  0  0  0  0  0
    1.6180    7.4020   20.7050 C   0  0  0  0  0  0  0  0  0  0  0  0
    1.7170    6.5030   21.5150 O   0  0  0  0  0  0  0  0  0  0  0  0
    1.0040    8.6630   17.9620 H   0  0  0  0  0  0  0  0  0  0  0  0
    2.5850    9.3560   18.5230 H   0  0  0  0  0  0  0  0  0  0  0  0
    0.3530    8.3670   23.0930 H   0  0  0  0  0  0  0  0  0  0  0  0
   -0.6720   10.6450   23.2380 H   0  0  0  0  0  0  0  0  0  0  0  0
   -0.6340   12.1590   21.2860 H   0  0  0  0  0  0  0  0  0  0  0  0
    0.4500   11.6860   18.7850 C   0  0  0  0  0  0  0  0  0  0  0  0
    0.0160   12.9430   19.0810 F   0  0  0  0  0  0  0  0  0  0  0  0
   -0.3520   11.2420   17.7790 F   0  0  0  0  0  0  0  0  0  0  0  0
    1.6880   11.8340   18.2430 F   0  0  0  0  0  0  0  0  0  0  0  0
    5.5550    6.3480   16.0240 C   0  0  2  0  0  0  0  0  0  0  0  0
    6.1160    7.1540   16.5170 H   0  0  0  0  0  0  0  0  0  0  0  0
    5.0670    6.9480   14.6960 C   0  0  0  0  0  0  0  0  0  0  0  0
    4.1910    7.5860   14.8560 H   0  0  0  0  0  0  0  0  0  0  0  0
    4.7750    6.1610   13.9930 H   0  0  0  0  0  0  0  0  0  0  0  0
    5.8350    7.5620   14.2160 H   0  0  0  0  0  0  0  0  0  0  0  0
    6.4870    5.1400   15.8050 C   0  0  0  0  0  0  0  0  0  0  0  0
    7.5340    5.4230   15.9650 H   0  0  0  0  0  0  0  0  0  0  0  0
    6.2740    4.3650   16.5520 H   0  0  0  0  0  0  0  0  0  0  0  0
    6.3490    4.5550   14.4420 C   0  0  0  0  0  0  0  0  0  0  0  0
    5.4100    3.7220   14.0420 N   0  0  0  0  0  0  0  0  0  0  0  0
    5.6450    3.4140   12.7240 N   0  0  0  0  0  0  0  0  0  0  0  0
    6.7240    4.0610   12.3490 C   0  0  0  0  0  0  0  0  0  0  0  0
    7.1990    4.7950   13.3920 N   0  0  0  0  0  0  0  0  0  0  0  0
    7.1770    4.0310   11.3670 H   0  0  0  0  0  0  0  0  0  0  0  0
    8.3540    5.6540   13.3680 C   0  0  0  0  0  0  0  0  0  0  0  0
    8.3870    6.2290   14.2970 H   0  0  0  0  0  0  0  0  0  0  0  0
    8.2760    6.3180   12.5050 H   0  0  0  0  0  0  0  0  0  0  0  0
    9.2580    5.0460   13.2840 H   0  0  0  0  0  0  0  0  0  0  0  0
  1  2  2  0  0  0  0
  1 10  1  0  0  0  0
  2  3  1  0  0  0  0
  3  4  1  0  0  0  0
  3  8  2  0  0  0  0
  4  5  1  0  0  0  0
  5 13  1  0  0  0  0
  6  5  1  0  0  0  0
  6 16  1  0  0  0  0
  7  4  1  0  0  0  0
  7 17  1  0  0  0  0
  7  6  1  0  0  0  0
  9  8  1  0  0  0  0
  9 19  1  0  0  0  0
 10  9  2  0  0  0  0
 11 10  1  0  0  0  0
 12  2  1  0  0  0  0
 14  5  1  0  0  0  0
 15  6  1  0  0  0  0
 18  7  1  0  0  0  0
 19 27  1  0  0  0  0
 20 19  1  0  0  0  0
 20 21  1  0  0  0  0
 21 26  2  0  0  0  0
 21 22  1  0  0  0  0
 22 23  2  0  0  0  0
 23 24  1  0  0  0  0
 23 31  1  0  0  0  0
 24 32  1  0  0  0  0
 25 33  1  0  0  0  0
 25 24  2  0  0  0  0
 26 25  1  0  0  0  0
 27 22  1  0  0  0  0
 27 28  2  0  0  0  0
 29 20  1  0  0  0  0
 30 20  1  0  0  0  0
 34 35  1  0  0  0  0
 34 26  1  0  0  0  0
 36 34  1  0  0  0  0
 37 34  1  0  0  0  0
 38 39  1  1  0  0  0
 38  1  1  0  0  0  0
 40 41  1  0  0  0  0
 40 38  1  0  0  0  0
 42 40  1  0  0  0  0
 43 40  1  0  0  0  0
 44 45  1  0  0  0  0
 44 38  1  0  0  0  0
 44 46  1  0  0  0  0
 47 44  1  0  0  0  0
 48 47  2  0  0  0  0
 49 48  1  0  0  0  0
 50 49  2  0  0  0  0
 50 51  1  0  0  0  0
 51 47  1  0  0  0  0
 52 50  1  0  0  0  0
 53 51  1  0  0  0  0
 53 54  1  0  0  0  0
 55 53  1  0  0  0  0
 56 53  1  0  0  0  0
M  END
>  <MODEL>
18

>  <REMARK>
 VINA RESULT:    -6.993      2.891      3.707
 INTER + INTRA:          -9.542
 INTER:                  -8.918
 INTRA:                  -0.624
 UNBOUND:                -0.097
  Name = 
  7 active torsions:
  status: ('A' for Active; 'I' for Inactive)
    1  A    between atoms: C_1  and  C_2
    2  A    between atoms: C_2  and  C_3
    3  A    between atoms: C_2  and  C_10
    4  A    between atoms: C_3  and  C_4
    5  A    between atoms: N_8  and  C_9
    6  A    between atoms: C_18  and  N_19
    7  A    between atoms: C_26  and  C_27
                            x       y       z     vdW  Elec       q    Type
                         _______ _______ _______ _____ _____    ______ ____

>  <TORSDO>
F 7

$$$$
=
 OpenBabel07192307433D

 56 60  0  0  1  0  0  0  0  0999 V2000
    1.2440   10.9450   18.8250 C   0  0  0  0  0  0  0  0  0  0  0  0
    0.8030   10.9550   20.1500 C   0  0  0  0  0  0  0  0  0  0  0  0
    0.8810    9.7940   20.9140 C   0  0  0  0  0  0  0  0  0  0  0  0
    0.4550    9.7990   22.2520 N   0  0  0  0  0  0  0  0  0  0  0  0
    0.1130    8.6250   23.0060 C   0  0  0  0  0  0  0  0  0  0  0  0
   -0.5950    9.5680   23.9850 C   0  0  0  0  0  0  0  0  0  0  0  0
   -0.6230   10.5590   22.8140 C   0  0  0  0  0  0  0  0  0  0  0  0
    1.3830    8.6480   20.4030 N   0  0  0  0  0  0  0  0  0  0  0  0
    1.8080    8.6060   19.1120 C   0  0  0  0  0  0  0  0  0  0  0  0
    1.7370    9.7400   18.3050 C   0  0  0  0  0  0  0  0  0  0  0  0
    2.1120    9.7390   17.0210 F   0  0  0  0  0  0  0  0  0  0  0  0
    0.4010   11.8580   20.5950 H   0  0  0  0  0  0  0  0  0  0  0  0
   -0.5470    7.9440   22.4600 H   0  0  0  0  0  0  0  0  0  0  0  0
    0.9820    8.0920   23.4000 H   0  0  0  0  0  0  0  0  0  0  0  0
    0.0240    9.8860   24.8310 H   0  0  0  0  0  0  0  0  0  0  0  0
   -1.5690    9.2310   24.3490 H   0  0  0  0  0  0  0  0  0  0  0  0
   -1.5320   10.5300   22.2030 H   0  0  0  0  0  0  0  0  0  0  0  0
   -0.3530   11.5870   23.0620 H   0  0  0  0  0  0  0  0  0  0  0  0
    2.3030    7.3500   18.6900 N   0  0  0  0  0  0  0  0  0  0  0  0
    1.6420    6.1420   19.1650 C   0  0  0  0  0  0  0  0  0  0  0  0
    2.4480    5.0460   18.5450 C   0  0  0  0  0  0  0  0  0  0  0  0
    3.4710    5.6000   17.7820 C   0  0  0  0  0  0  0  0  0  0  0  0
    4.3850    4.8260   17.0910 C   0  0  0  0  0  0  0  0  0  0  0  0
    4.2560    3.4400   17.1800 C   0  0  0  0  0  0  0  0  0  0  0  0
    3.2260    2.8650   17.9490 C   0  0  0  0  0  0  0  0  0  0  0  0
    2.3010    3.6650   18.6470 C   0  0  0  0  0  0  0  0  0  0  0  0
    3.3840    7.0670   17.8670 C   0  0  0  0  0  0  0  0  0  0  0  0
    4.1730    7.7800   17.2800 O   0  0  0  0  0  0  0  0  0  0  0  0
    0.6080    6.1170   18.8060 H   0  0  0  0  0  0  0  0  0  0  0  0
    1.6970    6.0930   20.2580 H   0  0  0  0  0  0  0  0  0  0  0  0
    5.1730    5.2860   16.5030 H   0  0  0  0  0  0  0  0  0  0  0  0
    4.9580    2.7980   16.6510 H   0  0  0  0  0  0  0  0  0  0  0  0
    3.1530    1.7780   17.9970 H   0  0  0  0  0  0  0  0  0  0  0  0
    1.1960    3.0620   19.4720 C   0  0  0  0  0  0  0  0  0  0  0  0
    1.6560    2.1060   20.3260 F   0  0  0  0  0  0  0  0  0  0  0  0
    0.2530    2.4520   18.7030 F   0  0  0  0  0  0  0  0  0  0  0  0
    0.5310    3.9640   20.2410 F   0  0  0  0  0  0  0  0  0  0  0  0
    1.1630   12.1620   17.9150 C   0  0  2  0  0  0  0  0  0  0  0  0
    1.0390   11.7940   16.8870 H   0  0  0  0  0  0  0  0  0  0  0  0
    2.4540   12.9940   17.8930 C   0  0  0  0  0  0  0  0  0  0  0  0
    2.2680   13.9900   17.4770 H   0  0  0  0  0  0  0  0  0  0  0  0
    3.2180   12.5170   17.2700 H   0  0  0  0  0  0  0  0  0  0  0  0
    2.8730   13.1320   18.8950 H   0  0  0  0  0  0  0  0  0  0  0  0
   -0.0650   13.0090   18.3040 C   0  0  0  0  0  0  0  0  0  0  0  0
   -0.0070   13.3170   19.3550 H   0  0  0  0  0  0  0  0  0  0  0  0
   -0.0740   13.9400   17.7240 H   0  0  0  0  0  0  0  0  0  0  0  0
   -1.3470   12.2840   18.0850 C   0  0  0  0  0  0  0  0  0  0  0  0
   -1.6940   11.6240   16.9980 N   0  0  0  0  0  0  0  0  0  0  0  0
   -2.9530   11.1100   17.1930 N   0  0  0  0  0  0  0  0  0  0  0  0
   -3.3500   11.4710   18.3920 C   0  0  0  0  0  0  0  0  0  0  0  0
   -2.3730   12.2050   18.9920 N   0  0  0  0  0  0  0  0  0  0  0  0
   -4.3000   11.2290   18.8490 H   0  0  0  0  0  0  0  0  0  0  0  0
   -2.4250   12.7620   20.3180 C   0  0  0  0  0  0  0  0  0  0  0  0
   -3.1620   13.5690   20.3360 H   0  0  0  0  0  0  0  0  0  0  0  0
   -1.4330   13.1390   20.5750 H   0  0  0  0  0  0  0  0  0  0  0  0
   -2.7190   11.9850   21.0280 H   0  0  0  0  0  0  0  0  0  0  0  0
  1  2  1  0  0  0  0
  2 12  1  0  0  0  0
  2  3  2  0  0  0  0
  3  4  1  0  0  0  0
  4  7  1  0  0  0  0
  4  5  1  0  0  0  0
  5 14  1  0  0  0  0
  5  6  1  0  0  0  0
  6 16  1  0  0  0  0
  6 15  1  0  0  0  0
  7 18  1  0  0  0  0
  7  6  1  0  0  0  0
  8  3  1  0  0  0  0
  9  8  2  0  0  0  0
 10  1  2  0  0  0  0
 10  9  1  0  0  0  0
 11 10  1  0  0  0  0
 13  5  1  0  0  0  0
 17  7  1  0  0  0  0
 19  9  1  0  0  0  0
 19 20  1  0  0  0  0
 20 30  1  0  0  0  0
 21 26  1  0  0  0  0
 21 20  1  0  0  0  0
 22 27  1  0  0  0  0
 22 21  2  0  0  0  0
 23 24  2  0  0  0  0
 23 22  1  0  0  0  0
 24 25  1  0  0  0  0
 25 33  1  0  0  0  0
 25 26  2  0  0  0  0
 26 34  1  0  0  0  0
 27 19  1  0  0  0  0
 28 27  2  0  0  0  0
 29 20  1  0  0  0  0
 31 23  1  0  0  0  0
 32 24  1  0  0  0  0
 34 37  1  0  0  0  0
 34 35  1  0  0  0  0
 36 34  1  0  0  0  0
 38 39  1  6  0  0  0
 38 44  1  0  0  0  0
 38  1  1  0  0  0  0
 40 38  1  0  0  0  0
 40 43  1  0  0  0  0
 41 40  1  0  0  0  0
 42 40  1  0  0  0  0
 44 45  1  0  0  0  0
 46 44  1  0  0  0  0
 47 44  1  0  0  0  0
 47 51  1  0  0  0  0
 48 49  1  0  0  0  0
 48 47  2  0  0  0  0
 49 50  2  0  0  0  0
 50 52  1  0  0  0  0
 50 51  1  0  0  0  0
 51 53  1  0  0  0  0
 53 54  1  0  0  0  0
 53 55  1  0  0  0  0
 53 56  1  0  0  0  0
M  END
>  <MODEL>
19

>  <REMARK>
 VINA RESULT:    -6.952      3.234      7.798
 INTER + INTRA:          -9.487
 INTER:                  -8.944
 INTRA:                  -0.543
 UNBOUND:                -0.097
  Name = 
  7 active torsions:
  status: ('A' for Active; 'I' for Inactive)
    1  A    between atoms: C_1  and  C_2
    2  A    between atoms: C_2  and  C_3
    3  A    between atoms: C_2  and  C_10
    4  A    between atoms: C_3  and  C_4
    5  A    between atoms: N_8  and  C_9
    6  A    between atoms: C_18  and  N_19
    7  A    between atoms: C_26  and  C_27
                            x       y       z     vdW  Elec       q    Type
                         _______ _______ _______ _____ _____    ______ ____

>  <TORSDO>
F 7

$$$$
=
 OpenBabel07192307433D

 56 60  0  0  1  0  0  0  0  0999 V2000
    1.2380   10.9600   18.8200 C   0  0  0  0  0  0  0  0  0  0  0  0
    0.7760   10.9750   20.1380 C   0  0  0  0  0  0  0  0  0  0  0  0
    0.8860    9.8310   20.9230 C   0  0  0  0  0  0  0  0  0  0  0  0
    0.4400    9.8420   22.2550 N   0  0  0  0  0  0  0  0  0  0  0  0
    0.1300    8.6680   23.0230 C   0  0  0  0  0  0  0  0  0  0  0  0
   -0.6290    9.5990   23.9750 C   0  0  0  0  0  0  0  0  0  0  0  0
   -0.6760   10.5690   22.7870 C   0  0  0  0  0  0  0  0  0  0  0  0
    1.4400    8.6970   20.4400 N   0  0  0  0  0  0  0  0  0  0  0  0
    1.8870    8.6500   19.1560 C   0  0  0  0  0  0  0  0  0  0  0  0
    1.7860    9.7670   18.3290 C   0  0  0  0  0  0  0  0  0  0  0  0
    2.1810    9.7590   17.0510 F   0  0  0  0  0  0  0  0  0  0  0  0
    0.3330   11.8700   20.5610 H   0  0  0  0  0  0  0  0  0  0  0  0
   -0.4940    7.9530   22.4790 H   0  0  0  0  0  0  0  0  0  0  0  0
    1.0120    8.1760   23.4400 H   0  0  0  0  0  0  0  0  0  0  0  0
   -0.0360    9.9550   24.8250 H   0  0  0  0  0  0  0  0  0  0  0  0
   -1.5950    9.2320   24.3300 H   0  0  0  0  0  0  0  0  0  0  0  0
   -1.5730   10.4950   22.1630 H   0  0  0  0  0  0  0  0  0  0  0  0
   -0.4490   11.6110   23.0200 H   0  0  0  0  0  0  0  0  0  0  0  0
    2.4360    7.4070   18.7640 N   0  0  0  0  0  0  0  0  0  0  0  0
    3.4590    7.3910   17.7260 C   0  0  0  0  0  0  0  0  0  0  0  0
    3.7630    5.9360   17.5690 C   0  0  0  0  0  0  0  0  0  0  0  0
    2.9760    5.2020   18.4510 C   0  0  0  0  0  0  0  0  0  0  0  0
    3.0360    3.8230   18.5280 C   0  0  0  0  0  0  0  0  0  0  0  0
    3.9240    3.1660   17.6770 C   0  0  0  0  0  0  0  0  0  0  0  0
    4.7270    3.8960   16.7790 C   0  0  0  0  0  0  0  0  0  0  0  0
    4.6560    5.3000   16.7110 C   0  0  0  0  0  0  0  0  0  0  0  0
    2.1300    6.1320   19.2170 C   0  0  0  0  0  0  0  0  0  0  0  0
    1.3530    5.7290   20.0590 O   0  0  0  0  0  0  0  0  0  0  0  0
    4.3440    7.9400   18.0670 H   0  0  0  0  0  0  0  0  0  0  0  0
    3.0530    7.8060   16.7970 H   0  0  0  0  0  0  0  0  0  0  0  0
    2.4100    3.2760   19.2270 H   0  0  0  0  0  0  0  0  0  0  0  0
    3.9990    2.0800   17.7080 H   0  0  0  0  0  0  0  0  0  0  0  0
    5.4110    3.3510   16.1270 H   0  0  0  0  0  0  0  0  0  0  0  0
    5.5080    6.0900   15.7540 C   0  0  0  0  0  0  0  0  0  0  0  0
    6.1610    5.2910   14.8660 F   0  0  0  0  0  0  0  0  0  0  0  0
    6.4750    6.8040   16.3930 F   0  0  0  0  0  0  0  0  0  0  0  0
    4.8080    6.9860   15.0080 F   0  0  0  0  0  0  0  0  0  0  0  0
    1.1260   12.1580   17.8890 C   0  0  2  0  0  0  0  0  0  0  0  0
    1.0110   11.7680   16.8680 H   0  0  0  0  0  0  0  0  0  0  0  0
    2.3940   13.0240   17.8510 C   0  0  0  0  0  0  0  0  0  0  0  0
    3.0470   12.7210   17.0260 H   0  0  0  0  0  0  0  0  0  0  0  0
    2.9680   12.9200   18.7780 H   0  0  0  0  0  0  0  0  0  0  0  0
    2.1640   14.0850   17.7130 H   0  0  0  0  0  0  0  0  0  0  0  0
   -0.1240   12.9790   18.2620 C   0  0  0  0  0  0  0  0  0  0  0  0
   -0.0800   13.2980   19.3100 H   0  0  0  0  0  0  0  0  0  0  0  0
   -0.1520   13.9040   17.6730 H   0  0  0  0  0  0  0  0  0  0  0  0
   -1.3880   12.2220   18.0430 C   0  0  0  0  0  0  0  0  0  0  0  0
   -1.6990   11.5180   16.9730 N   0  0  0  0  0  0  0  0  0  0  0  0
   -2.9520   10.9860   17.1610 N   0  0  0  0  0  0  0  0  0  0  0  0
   -3.3800   11.3800   18.3380 C   0  0  0  0  0  0  0  0  0  0  0  0
   -2.4310   12.1530   18.9310 N   0  0  0  0  0  0  0  0  0  0  0  0
   -4.3350   11.1350   18.7850 H   0  0  0  0  0  0  0  0  0  0  0  0
   -2.5200   12.7550   20.2360 C   0  0  0  0  0  0  0  0  0  0  0  0
   -2.7520   13.8160   20.1230 H   0  0  0  0  0  0  0  0  0  0  0  0
   -1.5650   12.6200   20.7470 H   0  0  0  0  0  0  0  0  0  0  0  0
   -3.3150   12.2680   20.8070 H   0  0  0  0  0  0  0  0  0  0  0  0
  1  2  1  0  0  0  0
  2 12  1  0  0  0  0
  2  3  2  0  0  0  0
  3  4  1  0  0  0  0
  4  7  1  0  0  0  0
  4  5  1  0  0  0  0
  5 14  1  0  0  0  0
  5  6  1  0  0  0  0
  6 16  1  0  0  0  0
  6 15  1  0  0  0  0
  7 18  1  0  0  0  0
  7  6  1  0  0  0  0
  8  3  1  0  0  0  0
  9  8  2  0  0  0  0
 10  1  2  0  0  0  0
 10  9  1  0  0  0  0
 11 10  1  0  0  0  0
 13  5  1  0  0  0  0
 17  7  1  0  0  0  0
 19  9  1  0  0  0  0
 19 27  1  0  0  0  0
 20 29  1  0  0  0  0
 20 19  1  0  0  0  0
 21 20  1  0  0  0  0
 21 22  1  0  0  0  0
 22 23  2  0  0  0  0
 22 27  1  0  0  0  0
 23 31  1  0  0  0  0
 24 32  1  0  0  0  0
 24 23  1  0  0  0  0
 25 24  2  0  0  0  0
 26 25  1  0  0  0  0
 26 21  2  0  0  0  0
 27 28  2  0  0  0  0
 30 20  1  0  0  0  0
 33 25  1  0  0  0  0
 34 36  1  0  0  0  0
 34 26  1  0  0  0  0
 35 34  1  0  0  0  0
 37 34  1  0  0  0  0
 38 39  1  6  0  0  0
 38 44  1  0  0  0  0
 38  1  1  0  0  0  0
 40 38  1  0  0  0  0
 40 42  1  0  0  0  0
 41 40  1  0  0  0  0
 43 40  1  0  0  0  0
 44 45  1  0  0  0  0
 46 44  1  0  0  0  0
 47 44  1  0  0  0  0
 47 51  1  0  0  0  0
 48 49  1  0  0  0  0
 48 47  2  0  0  0  0
 49 50  2  0  0  0  0
 50 52  1  0  0  0  0
 50 51  1  0  0  0  0
 51 53  1  0  0  0  0
 53 55  1  0  0  0  0
 53 56  1  0  0  0  0
 54 53  1  0  0  0  0
M  END
>  <MODEL>
20

>  <REMARK>
 VINA RESULT:    -6.837      3.339      8.243
 INTER + INTRA:          -9.332
 INTER:                  -8.711
 INTRA:                  -0.621
 UNBOUND:                -0.097
  Name = 
  7 active torsions:
  status: ('A' for Active; 'I' for Inactive)
    1  A    between atoms: C_1  and  C_2
    2  A    between atoms: C_2  and  C_3
    3  A    between atoms: C_2  and  C_10
    4  A    between atoms: C_3  and  C_4
    5  A    between atoms: N_8  and  C_9
    6  A    between atoms: C_18  and  N_19
    7  A    between atoms: C_26  and  C_27
                            x       y       z     vdW  Elec       q    Type
                         _______ _______ _______ _____ _____    ______ ____

>  <TORSDO>
F 7

$$$$
