=
 OpenBabel07192307433D

 60 63  0  0  1  0  0  0  0  0999 V2000
    0.6940   10.2470   19.6050 C   0  0  0  0  0  0  0  0  0  0  0  0
    1.6000   10.0390   18.5420 C   0  0  0  0  0  0  0  0  0  0  0  0
    2.3400    8.8590   18.4180 C   0  0  0  0  0  0  0  0  0  0  0  0
    2.1410    7.8560   19.3470 C   0  0  0  0  0  0  0  0  0  0  0  0
    1.2140    8.0220   20.3770 C   0  0  0  0  0  0  0  0  0  0  0  0
    0.4820    9.1960   20.5080 C   0  0  0  0  0  0  0  0  0  0  0  0
    1.2030    6.8280   21.2850 C   0  0  0  0  0  0  0  0  0  0  0  0
    1.8920    5.7710   20.4070 C   0  0  0  0  0  0  0  0  0  0  0  0
    2.8490    6.5370   19.4720 C   0  0  1  0  0  0  0  0  0  0  0  0
    1.7460   10.8210   17.7990 H   0  0  0  0  0  0  0  0  0  0  0  0
    3.0570    8.7480   17.6130 H   0  0  0  0  0  0  0  0  0  0  0  0
   -0.2270    9.2760   21.3220 H   0  0  0  0  0  0  0  0  0  0  0  0
    0.1890    6.5200   21.5620 H   0  0  0  0  0  0  0  0  0  0  0  0
    1.7890    7.0380   22.1870 H   0  0  0  0  0  0  0  0  0  0  0  0
    1.1270    5.2410   19.8220 H   0  0  0  0  0  0  0  0  0  0  0  0
    2.4150    5.0150   21.0030 H   0  0  0  0  0  0  0  0  0  0  0  0
    3.8230    6.6840   19.9590 H   0  0  0  0  0  0  0  0  0  0  0  0
    3.0220    5.8760   18.2000 N   0  0  0  0  0  0  0  0  0  0  0  0
    3.9610    4.8890   18.0580 C   0  0  0  0  0  0  0  0  0  0  0  0
    4.7590    4.5680   18.9270 O   0  0  0  0  0  0  0  0  0  0  0  0
    3.8950    4.3180   16.8120 N   0  0  0  0  0  0  0  0  0  0  0  0
    2.1890    5.7730   17.6410 H   0  0  0  0  0  0  0  0  0  0  0  0
    3.5810    4.9580   16.0960 H   0  0  0  0  0  0  0  0  0  0  0  0
    4.8980    3.3580   16.3890 C   0  0  0  0  0  0  0  0  0  0  0  0
    4.3900    2.4160   16.1640 H   0  0  0  0  0  0  0  0  0  0  0  0
    5.5460    3.1680   17.2530 H   0  0  0  0  0  0  0  0  0  0  0  0
    5.7610    3.8590   15.2560 C   0  0  0  0  0  0  0  0  0  0  0  0
    5.4230    3.5230   13.9300 C   0  0  0  0  0  0  0  0  0  0  0  0
    6.1710    4.0130   12.8570 C   0  0  0  0  0  0  0  0  0  0  0  0
    7.2550    4.8500   13.0960 C   0  0  0  0  0  0  0  0  0  0  0  0
    7.9640    5.3190   12.0620 F   0  0  0  0  0  0  0  0  0  0  0  0
    7.6150    5.2000   14.3880 C   0  0  0  0  0  0  0  0  0  0  0  0
    6.8770    4.6940   15.4630 C   0  0  0  0  0  0  0  0  0  0  0  0
    4.5710    2.8760   13.7300 H   0  0  0  0  0  0  0  0  0  0  0  0
    5.9140    3.7490   11.8350 H   0  0  0  0  0  0  0  0  0  0  0  0
    8.4670    5.8550   14.5520 H   0  0  0  0  0  0  0  0  0  0  0  0
    7.3310    5.0840   16.8100 C   0  0  0  0  0  0  0  0  0  0  0  0
    8.0250    4.1280   17.4890 N   0  0  0  0  0  0  0  0  0  0  0  0
    7.1090    6.2010   17.2550 O   0  0  0  0  0  0  0  0  0  0  0  0
    8.0270    3.1510   17.1840 H   0  0  0  0  0  0  0  0  0  0  0  0
    8.2660    4.3070   18.4510 H   0  0  0  0  0  0  0  0  0  0  0  0
   -0.0110   11.4590   19.6220 N   0  0  0  0  0  0  0  0  0  0  0  0
   -0.6950   11.4480   20.3790 H   0  0  0  0  0  0  0  0  0  0  0  0
   -0.5820   12.0160   18.3870 C   0  0  1  0  0  0  0  0  0  0  0  0
   -0.0060   11.6780   17.5160 H   0  0  0  0  0  0  0  0  0  0  0  0
   -2.0100   11.5180   18.2270 C   0  0  0  0  0  0  0  0  0  0  0  0
   -3.1050   12.1990   18.7910 C   0  0  0  0  0  0  0  0  0  0  0  0
   -4.4070   11.7150   18.6320 C   0  0  0  0  0  0  0  0  0  0  0  0
   -4.6370   10.5430   17.9100 C   0  0  0  0  0  0  0  0  0  0  0  0
   -3.5630    9.8610   17.3400 C   0  0  0  0  0  0  0  0  0  0  0  0
   -2.2680   10.3520   17.4970 C   0  0  0  0  0  0  0  0  0  0  0  0
   -1.2590    9.6830   16.9190 F   0  0  0  0  0  0  0  0  0  0  0  0
   -2.9440   13.1160   19.3620 H   0  0  0  0  0  0  0  0  0  0  0  0
   -5.2440   12.2510   19.0770 H   0  0  0  0  0  0  0  0  0  0  0  0
   -5.6510   10.1670   17.7860 H   0  0  0  0  0  0  0  0  0  0  0  0
   -3.7230    8.9500   16.7720 H   0  0  0  0  0  0  0  0  0  0  0  0
   -0.5560   13.5470   18.4460 C   0  0  0  0  0  0  0  0  0  0  0  0
    0.4080   13.9380   18.1020 H   0  0  0  0  0  0  0  0  0  0  0  0
   -1.3380   13.9920   17.8220 H   0  0  0  0  0  0  0  0  0  0  0  0
   -0.7180   13.9080   19.4670 H   0  0  0  0  0  0  0  0  0  0  0  0
  1 42  1  0  0  0  0
  1  6  1  0  0  0  0
  2  1  2  0  0  0  0
  3  2  1  0  0  0  0
  3  4  2  0  0  0  0
  4  9  1  0  0  0  0
  4  5  1  0  0  0  0
  5  6  2  0  0  0  0
  5  7  1  0  0  0  0
  6 12  1  0  0  0  0
  7 13  1  0  0  0  0
  7 14  1  0  0  0  0
  8 16  1  0  0  0  0
  8  7  1  0  0  0  0
  9 17  1  1  0  0  0
  9  8  1  0  0  0  0
 10  2  1  0  0  0  0
 11  3  1  0  0  0  0
 15  8  1  0  0  0  0
 18  9  1  0  0  0  0
 19 18  1  0  0  0  0
 19 20  2  0  0  0  0
 21 19  1  0  0  0  0
 22 18  1  0  0  0  0
 23 21  1  0  0  0  0
 24 21  1  0  0  0  0
 24 26  1  0  0  0  0
 25 24  1  0  0  0  0
 27 33  1  0  0  0  0
 27 24  1  0  0  0  0
 28 27  2  0  0  0  0
 29 30  2  0  0  0  0
 29 28  1  0  0  0  0
 30 32  1  0  0  0  0
 31 30  1  0  0  0  0
 32 36  1  0  0  0  0
 32 33  2  0  0  0  0
 33 37  1  0  0  0  0
 34 28  1  0  0  0  0
 35 29  1  0  0  0  0
 37 39  2  0  0  0  0
 37 38  1  0  0  0  0
 38 41  1  0  0  0  0
 40 38  1  0  0  0  0
 42 43  1  0  0  0  0
 44 45  1  6  0  0  0
 44 57  1  0  0  0  0
 44 42  1  0  0  0  0
 46 44  1  0  0  0  0
 46 47  1  0  0  0  0
 47 53  1  0  0  0  0
 48 47  2  0  0  0  0
 48 54  1  0  0  0  0
 49 48  1  0  0  0  0
 50 51  1  0  0  0  0
 50 49  2  0  0  0  0
 51 46  2  0  0  0  0
 52 51  1  0  0  0  0
 55 49  1  0  0  0  0
 56 50  1  0  0  0  0
 57 60  1  0  0  0  0
 58 57  1  0  0  0  0
 59 57  1  0  0  0  0
M  END
>  <MODEL>
1

>  <REMARK>
 VINA RESULT:    -9.460      0.000      0.000
 INTER + INTRA:         -13.716
 INTER:                 -12.154
 INTRA:                  -1.562
 UNBOUND:                -0.109
  Name = 
  8 active torsions:
  status: ('A' for Active; 'I' for Inactive)
    1  A    between atoms: C_1  and  C_2
    2  A    between atoms: C_2  and  N_3
    3  A    between atoms: C_2  and  C_28
    4  A    between atoms: N_3  and  C_4
    5  A    between atoms: C_12  and  N_13
    6  A    between atoms: N_16  and  C_17
    7  A    between atoms: C_17  and  C_18
    8  A    between atoms: C_24  and  C_25
                            x       y       z     vdW  Elec       q    Type
                         _______ _______ _______ _____ _____    ______ ____

>  <TORSDO>
F 8

$$$$
=
 OpenBabel07192307433D

 60 63  0  0  1  0  0  0  0  0999 V2000
    0.0880   10.6370   21.6970 C   0  0  0  0  0  0  0  0  0  0  0  0
    0.5960    9.4600   22.2880 C   0  0  0  0  0  0  0  0  0  0  0  0
    1.1730    8.4370   21.5280 C   0  0  0  0  0  0  0  0  0  0  0  0
    1.2820    8.6130   20.1620 C   0  0  0  0  0  0  0  0  0  0  0  0
    0.8310    9.7910   19.5640 C   0  0  0  0  0  0  0  0  0  0  0  0
    0.2500   10.8050   20.3150 C   0  0  0  0  0  0  0  0  0  0  0  0
    1.0070    9.7370   18.0760 C   0  0  0  0  0  0  0  0  0  0  0  0
    2.0240    8.5940   17.9310 C   0  0  0  0  0  0  0  0  0  0  0  0
    1.7950    7.6510   19.1290 C   0  0  1  0  0  0  0  0  0  0  0  0
    0.5270    9.3260   23.3660 H   0  0  0  0  0  0  0  0  0  0  0  0
    1.5170    7.5290   22.0100 H   0  0  0  0  0  0  0  0  0  0  0  0
   -0.0820   11.7010   19.8060 H   0  0  0  0  0  0  0  0  0  0  0  0
    1.3980   10.6740   17.6650 H   0  0  0  0  0  0  0  0  0  0  0  0
    0.0560    9.4850   17.5940 H   0  0  0  0  0  0  0  0  0  0  0  0
    3.0400    9.0140   17.9620 H   0  0  0  0  0  0  0  0  0  0  0  0
    1.9280    8.0720   16.9720 H   0  0  0  0  0  0  0  0  0  0  0  0
    1.0180    6.9120   18.8910 H   0  0  0  0  0  0  0  0  0  0  0  0
    3.0060    6.9840   19.5450 N   0  0  0  0  0  0  0  0  0  0  0  0
    3.4850    5.9160   18.8320 C   0  0  0  0  0  0  0  0  0  0  0  0
    2.9020    5.4020   17.8880 O   0  0  0  0  0  0  0  0  0  0  0  0
    4.6940    5.4940   19.3240 N   0  0  0  0  0  0  0  0  0  0  0  0
    3.7040    7.5680   19.9790 H   0  0  0  0  0  0  0  0  0  0  0  0
    4.7980    5.6510   20.3160 H   0  0  0  0  0  0  0  0  0  0  0  0
    5.3090    4.2790   18.8200 C   0  0  0  0  0  0  0  0  0  0  0  0
    4.5750    3.4710   18.8980 H   0  0  0  0  0  0  0  0  0  0  0  0
    6.1290    4.0270   19.5040 H   0  0  0  0  0  0  0  0  0  0  0  0
    5.8850    4.4350   17.4330 C   0  0  0  0  0  0  0  0  0  0  0  0
    5.3300    3.6970   16.3690 C   0  0  0  0  0  0  0  0  0  0  0  0
    5.8070    3.8560   15.0650 C   0  0  0  0  0  0  0  0  0  0  0  0
    6.8310    4.7610   14.8100 C   0  0  0  0  0  0  0  0  0  0  0  0
    7.2780    4.9120   13.5570 F   0  0  0  0  0  0  0  0  0  0  0  0
    7.3980    5.5040   15.8340 C   0  0  0  0  0  0  0  0  0  0  0  0
    6.9340    5.3290   17.1420 C   0  0  0  0  0  0  0  0  0  0  0  0
    4.5220    2.9920   16.5540 H   0  0  0  0  0  0  0  0  0  0  0  0
    5.3830    3.2820   14.2460 H   0  0  0  0  0  0  0  0  0  0  0  0
    8.1990    6.2050   15.6130 H   0  0  0  0  0  0  0  0  0  0  0  0
    7.6000    6.1290   18.1850 C   0  0  0  0  0  0  0  0  0  0  0  0
    7.7250    7.4570   17.9090 N   0  0  0  0  0  0  0  0  0  0  0  0
    7.9840    5.6170   19.2280 O   0  0  0  0  0  0  0  0  0  0  0  0
    7.5790    7.8230   16.9640 H   0  0  0  0  0  0  0  0  0  0  0  0
    8.2650    8.0260   18.5410 H   0  0  0  0  0  0  0  0  0  0  0  0
   -0.4520   11.6070   22.5540 N   0  0  0  0  0  0  0  0  0  0  0  0
   -1.1490   11.1780   23.1620 H   0  0  0  0  0  0  0  0  0  0  0  0
   -0.9140   12.9020   22.0310 C   0  0  1  0  0  0  0  0  0  0  0  0
   -0.3910   13.1430   21.0980 H   0  0  0  0  0  0  0  0  0  0  0  0
   -2.4010   12.8150   21.7270 C   0  0  0  0  0  0  0  0  0  0  0  0
   -3.3680   12.7420   22.7480 C   0  0  0  0  0  0  0  0  0  0  0  0
   -4.7300   12.6580   22.4380 C   0  0  0  0  0  0  0  0  0  0  0  0
   -5.1470   12.6450   21.1060 C   0  0  0  0  0  0  0  0  0  0  0  0
   -4.2020   12.7240   20.0850 C   0  0  0  0  0  0  0  0  0  0  0  0
   -2.8460   12.8120   20.4000 C   0  0  0  0  0  0  0  0  0  0  0  0
   -1.9640   12.9080   19.3940 F   0  0  0  0  0  0  0  0  0  0  0  0
   -3.0600   12.7480   23.7940 H   0  0  0  0  0  0  0  0  0  0  0  0
   -5.4660   12.5980   23.2380 H   0  0  0  0  0  0  0  0  0  0  0  0
   -6.2070   12.5810   20.8660 H   0  0  0  0  0  0  0  0  0  0  0  0
   -4.5080   12.7190   19.0430 H   0  0  0  0  0  0  0  0  0  0  0  0
   -0.6440   14.0040   23.0610 C   0  0  0  0  0  0  0  0  0  0  0  0
   -1.4190   14.7770   23.0210 H   0  0  0  0  0  0  0  0  0  0  0  0
   -0.6170   13.6100   24.0820 H   0  0  0  0  0  0  0  0  0  0  0  0
    0.3210   14.4890   22.8800 H   0  0  0  0  0  0  0  0  0  0  0  0
  1  2  1  0  0  0  0
  1 42  1  0  0  0  0
  2 10  1  0  0  0  0
  3 11  1  0  0  0  0
  3  2  2  0  0  0  0
  4  3  1  0  0  0  0
  5  4  2  0  0  0  0
  5  6  1  0  0  0  0
  6  1  2  0  0  0  0
  7  5  1  0  0  0  0
  8 15  1  0  0  0  0
  8  7  1  0  0  0  0
  8  9  1  0  0  0  0
  9 17  1  6  0  0  0
  9 18  1  0  0  0  0
  9  4  1  0  0  0  0
 12  6  1  0  0  0  0
 13  7  1  0  0  0  0
 14  7  1  0  0  0  0
 16  8  1  0  0  0  0
 18 22  1  0  0  0  0
 19 21  1  0  0  0  0
 19 18  1  0  0  0  0
 20 19  2  0  0  0  0
 21 23  1  0  0  0  0
 24 25  1  0  0  0  0
 24 21  1  0  0  0  0
 24 26  1  0  0  0  0
 27 24  1  0  0  0  0
 28 34  1  0  0  0  0
 28 27  2  0  0  0  0
 29 28  1  0  0  0  0
 30 29  2  0  0  0  0
 30 32  1  0  0  0  0
 31 30  1  0  0  0  0
 32 33  2  0  0  0  0
 33 27  1  0  0  0  0
 33 37  1  0  0  0  0
 35 29  1  0  0  0  0
 36 32  1  0  0  0  0
 37 39  2  0  0  0  0
 38 37  1  0  0  0  0
 38 41  1  0  0  0  0
 40 38  1  0  0  0  0
 42 43  1  0  0  0  0
 44 45  1  6  0  0  0
 44 42  1  0  0  0  0
 44 57  1  0  0  0  0
 46 44  1  0  0  0  0
 46 47  1  0  0  0  0
 47 53  1  0  0  0  0
 48 47  2  0  0  0  0
 48 54  1  0  0  0  0
 49 48  1  0  0  0  0
 50 51  1  0  0  0  0
 50 49  2  0  0  0  0
 51 46  2  0  0  0  0
 52 51  1  0  0  0  0
 55 49  1  0  0  0  0
 56 50  1  0  0  0  0
 57 59  1  0  0  0  0
 58 57  1  0  0  0  0
 60 57  1  0  0  0  0
M  END
>  <MODEL>
2

>  <REMARK>
 VINA RESULT:    -9.154      2.240      2.974
 INTER + INTRA:         -13.276
 INTER:                 -12.445
 INTRA:                  -0.831
 UNBOUND:                -0.109
  Name = 
  8 active torsions:
  status: ('A' for Active; 'I' for Inactive)
    1  A    between atoms: C_1  and  C_2
    2  A    between atoms: C_2  and  N_3
    3  A    between atoms: C_2  and  C_28
    4  A    between atoms: N_3  and  C_4
    5  A    between atoms: C_12  and  N_13
    6  A    between atoms: N_16  and  C_17
    7  A    between atoms: C_17  and  C_18
    8  A    between atoms: C_24  and  C_25
                            x       y       z     vdW  Elec       q    Type
                         _______ _______ _______ _____ _____    ______ ____

>  <TORSDO>
F 8

$$$$
=
 OpenBabel07192307433D

 60 63  0  0  1  0  0  0  0  0999 V2000
    4.0550    3.2240   17.3180 C   0  0  0  0  0  0  0  0  0  0  0  0
    2.9310    4.0370   17.0560 C   0  0  0  0  0  0  0  0  0  0  0  0
    1.9370    4.2610   18.0150 C   0  0  0  0  0  0  0  0  0  0  0  0
    2.0910    3.6960   19.2670 C   0  0  0  0  0  0  0  0  0  0  0  0
    3.2200    2.9290   19.5610 C   0  0  0  0  0  0  0  0  0  0  0  0
    4.2050    2.6990   18.6090 C   0  0  0  0  0  0  0  0  0  0  0  0
    3.1470    2.3840   20.9560 C   0  0  0  0  0  0  0  0  0  0  0  0
    2.0780    3.2930   21.5830 C   0  0  0  0  0  0  0  0  0  0  0  0
    1.1470    3.7290   20.4340 C   0  0  1  0  0  0  0  0  0  0  0  0
    2.8160    4.4980   16.0770 H   0  0  0  0  0  0  0  0  0  0  0  0
    1.0670    4.8570   17.7680 H   0  0  0  0  0  0  0  0  0  0  0  0
    5.0630    2.1000   18.8860 H   0  0  0  0  0  0  0  0  0  0  0  0
    4.1010    2.4620   21.4880 H   0  0  0  0  0  0  0  0  0  0  0  0
    2.8160    1.3400   20.9330 H   0  0  0  0  0  0  0  0  0  0  0  0
    2.5720    4.1680   22.0300 H   0  0  0  0  0  0  0  0  0  0  0  0
    1.5300    2.7930   22.3900 H   0  0  0  0  0  0  0  0  0  0  0  0
    0.3480    2.9890   20.2870 H   0  0  0  0  0  0  0  0  0  0  0  0
    0.5790    5.0390   20.6520 N   0  0  0  0  0  0  0  0  0  0  0  0
    1.3930    6.1360   20.7450 C   0  0  0  0  0  0  0  0  0  0  0  0
    2.6150    6.0890   20.7490 O   0  0  0  0  0  0  0  0  0  0  0  0
    0.6590    7.2910   20.8460 N   0  0  0  0  0  0  0  0  0  0  0  0
   -0.3280    5.1990   20.2420 H   0  0  0  0  0  0  0  0  0  0  0  0
   -0.2300    7.1590   21.3070 H   0  0  0  0  0  0  0  0  0  0  0  0
    1.3140    8.5590   21.1110 C   0  0  0  0  0  0  0  0  0  0  0  0
    1.9770    8.7790   20.2690 H   0  0  0  0  0  0  0  0  0  0  0  0
    1.9570    8.4110   21.9870 H   0  0  0  0  0  0  0  0  0  0  0  0
    0.3460    9.6750   21.4200 C   0  0  0  0  0  0  0  0  0  0  0  0
   -0.2390    9.7470   22.7000 C   0  0  0  0  0  0  0  0  0  0  0  0
   -1.1000   10.7950   23.0330 C   0  0  0  0  0  0  0  0  0  0  0  0
   -1.3750   11.7870   22.0980 C   0  0  0  0  0  0  0  0  0  0  0  0
   -2.1970   12.7910   22.4270 F   0  0  0  0  0  0  0  0  0  0  0  0
   -0.8160   11.7470   20.8300 C   0  0  0  0  0  0  0  0  0  0  0  0
    0.0310   10.6860   20.4900 C   0  0  0  0  0  0  0  0  0  0  0  0
   -0.0240    8.9810   23.4430 H   0  0  0  0  0  0  0  0  0  0  0  0
   -1.5560   10.8470   24.0180 H   0  0  0  0  0  0  0  0  0  0  0  0
   -1.0450   12.5320   20.1140 H   0  0  0  0  0  0  0  0  0  0  0  0
    0.5670   10.6910   19.1180 C   0  0  0  0  0  0  0  0  0  0  0  0
   -0.2440   10.1360   18.1740 N   0  0  0  0  0  0  0  0  0  0  0  0
    1.6570   11.1860   18.8650 O   0  0  0  0  0  0  0  0  0  0  0  0
   -1.0490    9.5590   18.4330 H   0  0  0  0  0  0  0  0  0  0  0  0
    0.1200   10.0210   17.2420 H   0  0  0  0  0  0  0  0  0  0  0  0
    5.0020    3.0840   16.2920 N   0  0  0  0  0  0  0  0  0  0  0  0
    5.7670    2.4900   16.6100 H   0  0  0  0  0  0  0  0  0  0  0  0
    5.4980    4.2590   15.5590 C   0  0  1  0  0  0  0  0  0  0  0  0
    4.6570    4.8440   15.1650 H   0  0  0  0  0  0  0  0  0  0  0  0
    6.2810    5.1480   16.5120 C   0  0  0  0  0  0  0  0  0  0  0  0
    7.2580    4.6280   17.3830 C   0  0  0  0  0  0  0  0  0  0  0  0
    7.9610    5.4690   18.2520 C   0  0  0  0  0  0  0  0  0  0  0  0
    7.6980    6.8400   18.2680 C   0  0  0  0  0  0  0  0  0  0  0  0
    6.7380    7.3690   17.4070 C   0  0  0  0  0  0  0  0  0  0  0  0
    6.0450    6.5270   16.5390 C   0  0  0  0  0  0  0  0  0  0  0  0
    5.1420    7.0710   15.7090 F   0  0  0  0  0  0  0  0  0  0  0  0
    7.4750    3.5590   17.3860 H   0  0  0  0  0  0  0  0  0  0  0  0
    8.7110    5.0530   18.9230 H   0  0  0  0  0  0  0  0  0  0  0  0
    8.2450    7.4940   18.9450 H   0  0  0  0  0  0  0  0  0  0  0  0
    6.5230    8.4340   17.4030 H   0  0  0  0  0  0  0  0  0  0  0  0
    6.3890    3.8080   14.3970 C   0  0  0  0  0  0  0  0  0  0  0  0
    6.9210    4.6580   13.9570 H   0  0  0  0  0  0  0  0  0  0  0  0
    7.1370    3.0760   14.7180 H   0  0  0  0  0  0  0  0  0  0  0  0
    5.7990    3.3360   13.6040 H   0  0  0  0  0  0  0  0  0  0  0  0
  1  6  1  0  0  0  0
  2  1  2  0  0  0  0
  2  3  1  0  0  0  0
  3  4  2  0  0  0  0
  4  5  1  0  0  0  0
  4  9  1  0  0  0  0
  5  7  1  0  0  0  0
  6 12  1  0  0  0  0
  6  5  2  0  0  0  0
  7 13  1  0  0  0  0
  7  8  1  0  0  0  0
  8 15  1  0  0  0  0
  8 16  1  0  0  0  0
  9 17  1  6  0  0  0
  9 18  1  0  0  0  0
  9  8  1  0  0  0  0
 10  2  1  0  0  0  0
 11  3  1  0  0  0  0
 14  7  1  0  0  0  0
 18 19  1  0  0  0  0
 19 20  2  0  0  0  0
 19 21  1  0  0  0  0
 21 24  1  0  0  0  0
 21 23  1  0  0  0  0
 22 18  1  0  0  0  0
 24 27  1  0  0  0  0
 24 26  1  0  0  0  0
 25 24  1  0  0  0  0
 27 28  1  0  0  0  0
 28 29  2  0  0  0  0
 28 34  1  0  0  0  0
 29 35  1  0  0  0  0
 30 31  1  0  0  0  0
 30 29  1  0  0  0  0
 32 30  2  0  0  0  0
 33 32  1  0  0  0  0
 33 27  2  0  0  0  0
 36 32  1  0  0  0  0
 37 33  1  0  0  0  0
 38 40  1  0  0  0  0
 38 37  1  0  0  0  0
 39 37  2  0  0  0  0
 41 38  1  0  0  0  0
 42 43  1  0  0  0  0
 42  1  1  0  0  0  0
 44 45  1  6  0  0  0
 44 42  1  0  0  0  0
 44 46  1  0  0  0  0
 46 51  2  0  0  0  0
 46 47  1  0  0  0  0
 47 53  1  0  0  0  0
 47 48  2  0  0  0  0
 48 49  1  0  0  0  0
 48 54  1  0  0  0  0
 49 55  1  0  0  0  0
 50 49  2  0  0  0  0
 51 50  1  0  0  0  0
 52 51  1  0  0  0  0
 56 50  1  0  0  0  0
 57 59  1  0  0  0  0
 57 44  1  0  0  0  0
 58 57  1  0  0  0  0
 60 57  1  0  0  0  0
M  END
>  <MODEL>
3

>  <REMARK>
 VINA RESULT:    -9.145      2.878      9.545
 INTER + INTRA:         -13.263
 INTER:                 -12.505
 INTRA:                  -0.758
 UNBOUND:                -0.109
  Name = 
  8 active torsions:
  status: ('A' for Active; 'I' for Inactive)
    1  A    between atoms: C_1  and  C_2
    2  A    between atoms: C_2  and  N_3
    3  A    between atoms: C_2  and  C_28
    4  A    between atoms: N_3  and  C_4
    5  A    between atoms: C_12  and  N_13
    6  A    between atoms: N_16  and  C_17
    7  A    between atoms: C_17  and  C_18
    8  A    between atoms: C_24  and  C_25
                            x       y       z     vdW  Elec       q    Type
                         _______ _______ _______ _____ _____    ______ ____

>  <TORSDO>
F 8

$$$$
=
 OpenBabel07192307433D

 60 63  0  0  1  0  0  0  0  0999 V2000
   -0.1860   10.7470   19.0320 C   0  0  0  0  0  0  0  0  0  0  0  0
    0.6990   10.4000   17.9880 C   0  0  0  0  0  0  0  0  0  0  0  0
    1.5800    9.3180   18.0930 C   0  0  0  0  0  0  0  0  0  0  0  0
    1.5470    8.5500   19.2410 C   0  0  0  0  0  0  0  0  0  0  0  0
    0.6440    8.8470   20.2630 C   0  0  0  0  0  0  0  0  0  0  0  0
   -0.2270    9.9250   20.1660 C   0  0  0  0  0  0  0  0  0  0  0  0
    0.8210    7.9120   21.4220 C   0  0  0  0  0  0  0  0  0  0  0  0
    1.6080    6.7640   20.7700 C   0  0  0  0  0  0  0  0  0  0  0  0
    2.4240    7.3910   19.6210 C   0  0  1  0  0  0  0  0  0  0  0  0
    0.7160   10.9930   17.0760 H   0  0  0  0  0  0  0  0  0  0  0  0
    2.2750    9.1030   17.2890 H   0  0  0  0  0  0  0  0  0  0  0  0
   -0.9100   10.1140   20.9840 H   0  0  0  0  0  0  0  0  0  0  0  0
   -0.1340    7.5620   21.8290 H   0  0  0  0  0  0  0  0  0  0  0  0
    1.4080    8.3980   22.2090 H   0  0  0  0  0  0  0  0  0  0  0  0
    0.8970    6.0240   20.3750 H   0  0  0  0  0  0  0  0  0  0  0  0
    2.2460    6.2380   21.4880 H   0  0  0  0  0  0  0  0  0  0  0  0
    3.3870    7.7620   19.9940 H   0  0  0  0  0  0  0  0  0  0  0  0
    2.6330    6.4710   18.5280 N   0  0  0  0  0  0  0  0  0  0  0  0
    3.6380    5.5420   18.5920 C   0  0  0  0  0  0  0  0  0  0  0  0
    4.4640    5.4830   19.4920 O   0  0  0  0  0  0  0  0  0  0  0  0
    3.6040    4.7000   17.5100 N   0  0  0  0  0  0  0  0  0  0  0  0
    1.8050    6.1860   18.0270 H   0  0  0  0  0  0  0  0  0  0  0  0
    3.2400    5.1370   16.6750 H   0  0  0  0  0  0  0  0  0  0  0  0
    4.6700    3.7380   17.2920 C   0  0  0  0  0  0  0  0  0  0  0  0
    4.2210    2.7410   17.2460 H   0  0  0  0  0  0  0  0  0  0  0  0
    5.3060    3.7550   18.1860 H   0  0  0  0  0  0  0  0  0  0  0  0
    5.5300    4.0650   16.0960 C   0  0  0  0  0  0  0  0  0  0  0  0
    5.1200    3.6420   14.8150 C   0  0  0  0  0  0  0  0  0  0  0  0
    5.8680    3.9710   13.6820 C   0  0  0  0  0  0  0  0  0  0  0  0
    7.0230    4.7340   13.8150 C   0  0  0  0  0  0  0  0  0  0  0  0
    7.7310    5.0500   12.7230 F   0  0  0  0  0  0  0  0  0  0  0  0
    7.4540    5.1660   15.0590 C   0  0  0  0  0  0  0  0  0  0  0  0
    6.7150    4.8190   16.1960 C   0  0  0  0  0  0  0  0  0  0  0  0
    4.2130    3.0520   14.6980 H   0  0  0  0  0  0  0  0  0  0  0  0
    5.5550    3.6410   12.6960 H   0  0  0  0  0  0  0  0  0  0  0  0
    8.3610    5.7600   15.1400 H   0  0  0  0  0  0  0  0  0  0  0  0
    7.2460    5.2870   17.4890 C   0  0  0  0  0  0  0  0  0  0  0  0
    7.9240    4.3520   18.2120 N   0  0  0  0  0  0  0  0  0  0  0  0
    7.0960    6.4450   17.8540 O   0  0  0  0  0  0  0  0  0  0  0  0
    7.8670    3.3560   17.9840 H   0  0  0  0  0  0  0  0  0  0  0  0
    8.2140    4.5920   19.1460 H   0  0  0  0  0  0  0  0  0  0  0  0
   -1.0410   11.8380   18.8140 N   0  0  0  0  0  0  0  0  0  0  0  0
   -1.0920   12.0400   17.8160 H   0  0  0  0  0  0  0  0  0  0  0  0
   -0.9100   13.0690   19.6090 C   0  0  1  0  0  0  0  0  0  0  0  0
   -1.3620   13.9150   19.0760 H   0  0  0  0  0  0  0  0  0  0  0  0
   -1.6500   12.8940   20.9250 C   0  0  0  0  0  0  0  0  0  0  0  0
   -0.9720   12.8180   22.1570 C   0  0  0  0  0  0  0  0  0  0  0  0
   -1.6780   12.6530   23.3530 C   0  0  0  0  0  0  0  0  0  0  0  0
   -3.0710   12.5590   23.3380 C   0  0  0  0  0  0  0  0  0  0  0  0
   -3.7560   12.6380   22.1270 C   0  0  0  0  0  0  0  0  0  0  0  0
   -3.0470   12.8090   20.9390 C   0  0  0  0  0  0  0  0  0  0  0  0
   -3.7380   12.9030   19.7930 F   0  0  0  0  0  0  0  0  0  0  0  0
    0.1170   12.8880   22.1870 H   0  0  0  0  0  0  0  0  0  0  0  0
   -1.1410   12.5930   24.2980 H   0  0  0  0  0  0  0  0  0  0  0  0
   -3.6200   12.4300   24.2700 H   0  0  0  0  0  0  0  0  0  0  0  0
   -4.8390   12.5700   22.0970 H   0  0  0  0  0  0  0  0  0  0  0  0
    0.5710   13.3670   19.8650 C   0  0  0  0  0  0  0  0  0  0  0  0
    0.8250   13.2180   20.9200 H   0  0  0  0  0  0  0  0  0  0  0  0
    1.2250   12.7210   19.2700 H   0  0  0  0  0  0  0  0  0  0  0  0
    0.8200   14.4010   19.6040 H   0  0  0  0  0  0  0  0  0  0  0  0
  1  6  1  0  0  0  0
  2  3  1  0  0  0  0
  2  1  2  0  0  0  0
  3  4  2  0  0  0  0
  4  9  1  0  0  0  0
  4  5  1  0  0  0  0
  5  7  1  0  0  0  0
  6  5  2  0  0  0  0
  6 12  1  0  0  0  0
  7 13  1  0  0  0  0
  7 14  1  0  0  0  0
  8  7  1  0  0  0  0
  8 16  1  0  0  0  0
  9 17  1  1  0  0  0
  9  8  1  0  0  0  0
 10  2  1  0  0  0  0
 11  3  1  0  0  0  0
 15  8  1  0  0  0  0
 18 19  1  0  0  0  0
 18  9  1  0  0  0  0
 19 20  2  0  0  0  0
 21 19  1  0  0  0  0
 22 18  1  0  0  0  0
 23 21  1  0  0  0  0
 24 21  1  0  0  0  0
 24 26  1  0  0  0  0
 25 24  1  0  0  0  0
 27 33  1  0  0  0  0
 27 24  1  0  0  0  0
 28 27  2  0  0  0  0
 29 30  2  0  0  0  0
 29 28  1  0  0  0  0
 30 32  1  0  0  0  0
 31 30  1  0  0  0  0
 32 36  1  0  0  0  0
 32 33  2  0  0  0  0
 33 37  1  0  0  0  0
 34 28  1  0  0  0  0
 35 29  1  0  0  0  0
 37 39  2  0  0  0  0
 37 38  1  0  0  0  0
 38 41  1  0  0  0  0
 40 38  1  0  0  0  0
 42  1  1  0  0  0  0
 42 44  1  0  0  0  0
 43 42  1  0  0  0  0
 44 45  1  6  0  0  0
 44 57  1  0  0  0  0
 44 46  1  0  0  0  0
 46 51  2  0  0  0  0
 46 47  1  0  0  0  0
 47 53  1  0  0  0  0
 47 48  2  0  0  0  0
 48 54  1  0  0  0  0
 49 48  1  0  0  0  0
 49 55  1  0  0  0  0
 50 49  2  0  0  0  0
 51 50  1  0  0  0  0
 52 51  1  0  0  0  0
 56 50  1  0  0  0  0
 57 58  1  0  0  0  0
 59 57  1  0  0  0  0
 60 57  1  0  0  0  0
M  END
>  <MODEL>
4

>  <REMARK>
 VINA RESULT:    -9.122      1.967      2.392
 INTER + INTRA:         -13.231
 INTER:                 -11.963
 INTRA:                  -1.267
 UNBOUND:                -0.109
  Name = 
  8 active torsions:
  status: ('A' for Active; 'I' for Inactive)
    1  A    between atoms: C_1  and  C_2
    2  A    between atoms: C_2  and  N_3
    3  A    between atoms: C_2  and  C_28
    4  A    between atoms: N_3  and  C_4
    5  A    between atoms: C_12  and  N_13
    6  A    between atoms: N_16  and  C_17
    7  A    between atoms: C_17  and  C_18
    8  A    between atoms: C_24  and  C_25
                            x       y       z     vdW  Elec       q    Type
                         _______ _______ _______ _____ _____    ______ ____

>  <TORSDO>
F 8

$$$$
=
 OpenBabel07192307433D

 60 63  0  0  1  0  0  0  0  0999 V2000
   -0.4900   11.0240   22.4610 C   0  0  0  0  0  0  0  0  0  0  0  0
   -0.0760    9.7880   23.0020 C   0  0  0  0  0  0  0  0  0  0  0  0
    0.5010    8.7890   22.2110 C   0  0  0  0  0  0  0  0  0  0  0  0
    0.7040    9.0460   20.8690 C   0  0  0  0  0  0  0  0  0  0  0  0
    0.3470   10.2810   20.3250 C   0  0  0  0  0  0  0  0  0  0  0  0
   -0.2330   11.2730   21.1060 C   0  0  0  0  0  0  0  0  0  0  0  0
    0.6150   10.3150   18.8500 C   0  0  0  0  0  0  0  0  0  0  0  0
    1.5860    9.1340   18.6900 C   0  0  0  0  0  0  0  0  0  0  0  0
    1.2370    8.1280   19.8060 C   0  0  1  0  0  0  0  0  0  0  0  0
   -0.2180    9.5880   24.0620 H   0  0  0  0  0  0  0  0  0  0  0  0
    0.7710    7.8350   22.6500 H   0  0  0  0  0  0  0  0  0  0  0  0
   -0.4910   12.2150   20.6400 H   0  0  0  0  0  0  0  0  0  0  0  0
    1.0740   11.2560   18.5280 H   0  0  0  0  0  0  0  0  0  0  0  0
   -0.3140   10.1420   18.2970 H   0  0  0  0  0  0  0  0  0  0  0  0
    2.6150    9.5000   18.8110 H   0  0  0  0  0  0  0  0  0  0  0  0
    1.5270    8.6810   17.6940 H   0  0  0  0  0  0  0  0  0  0  0  0
    0.4440    7.4460   19.4720 H   0  0  0  0  0  0  0  0  0  0  0  0
    2.3880    7.3760   20.2480 N   0  0  0  0  0  0  0  0  0  0  0  0
    2.7210    6.2000   19.6300 C   0  0  0  0  0  0  0  0  0  0  0  0
    2.0490    5.6650   18.7600 O   0  0  0  0  0  0  0  0  0  0  0  0
    3.8990    5.6970   20.1240 N   0  0  0  0  0  0  0  0  0  0  0  0
    3.1610    7.9200   20.6010 H   0  0  0  0  0  0  0  0  0  0  0  0
    4.0590    5.9350   21.0920 H   0  0  0  0  0  0  0  0  0  0  0  0
    4.3610    4.3800   19.7240 C   0  0  0  0  0  0  0  0  0  0  0  0
    3.5120    3.6920   19.7800 H   0  0  0  0  0  0  0  0  0  0  0  0
    5.0840    4.0500   20.4800 H   0  0  0  0  0  0  0  0  0  0  0  0
    5.0500    4.3750   18.3800 C   0  0  0  0  0  0  0  0  0  0  0  0
    6.1940    5.1760   18.1890 C   0  0  0  0  0  0  0  0  0  0  0  0
    6.8830    5.1560   16.9730 C   0  0  0  0  0  0  0  0  0  0  0  0
    6.4450    4.3290   15.9450 C   0  0  0  0  0  0  0  0  0  0  0  0
    7.1150    4.3110   14.7850 F   0  0  0  0  0  0  0  0  0  0  0  0
    5.3250    3.5280   16.1010 C   0  0  0  0  0  0  0  0  0  0  0  0
    4.6230    3.5640   17.3110 C   0  0  0  0  0  0  0  0  0  0  0  0
    6.5510    5.8200   18.9890 H   0  0  0  0  0  0  0  0  0  0  0  0
    7.7610    5.7770   16.8230 H   0  0  0  0  0  0  0  0  0  0  0  0
    4.9990    2.8900   15.2830 H   0  0  0  0  0  0  0  0  0  0  0  0
    3.4250    2.7100   17.3980 C   0  0  0  0  0  0  0  0  0  0  0  0
    2.2570    3.3080   17.0330 N   0  0  0  0  0  0  0  0  0  0  0  0
    3.5040    1.5420   17.7520 O   0  0  0  0  0  0  0  0  0  0  0  0
    2.1850    4.3240   16.9320 H   0  0  0  0  0  0  0  0  0  0  0  0
    1.3980    2.8010   17.1750 H   0  0  0  0  0  0  0  0  0  0  0  0
   -1.0380   11.9630   23.3480 N   0  0  0  0  0  0  0  0  0  0  0  0
   -1.7760   11.5250   23.8990 H   0  0  0  0  0  0  0  0  0  0  0  0
   -1.4340   13.3000   22.8800 C   0  0  1  0  0  0  0  0  0  0  0  0
   -0.6760   13.7040   22.1980 H   0  0  0  0  0  0  0  0  0  0  0  0
   -2.7440   13.1930   22.1160 C   0  0  0  0  0  0  0  0  0  0  0  0
   -3.9370   12.7740   22.7350 C   0  0  0  0  0  0  0  0  0  0  0  0
   -5.1270   12.6810   22.0060 C   0  0  0  0  0  0  0  0  0  0  0  0
   -5.1440   13.0030   20.6470 C   0  0  0  0  0  0  0  0  0  0  0  0
   -3.9730   13.4250   20.0220 C   0  0  0  0  0  0  0  0  0  0  0  0
   -2.7910   13.5210   20.7560 C   0  0  0  0  0  0  0  0  0  0  0  0
   -1.6860   13.9520   20.1290 F   0  0  0  0  0  0  0  0  0  0  0  0
   -3.9410   12.5160   23.7950 H   0  0  0  0  0  0  0  0  0  0  0  0
   -6.0410   12.3510   22.4970 H   0  0  0  0  0  0  0  0  0  0  0  0
   -6.0710   12.9300   20.0800 H   0  0  0  0  0  0  0  0  0  0  0  0
   -3.9680   13.6830   18.9670 H   0  0  0  0  0  0  0  0  0  0  0  0
   -1.5920   14.2440   24.0770 C   0  0  0  0  0  0  0  0  0  0  0  0
   -2.5920   14.1620   24.5140 H   0  0  0  0  0  0  0  0  0  0  0  0
   -0.8640   14.0270   24.8660 H   0  0  0  0  0  0  0  0  0  0  0  0
   -1.4400   15.2880   23.7820 H   0  0  0  0  0  0  0  0  0  0  0  0
  1  2  1  0  0  0  0
  1 42  1  0  0  0  0
  2 10  1  0  0  0  0
  3 11  1  0  0  0  0
  3  2  2  0  0  0  0
  4  3  1  0  0  0  0
  5  4  2  0  0  0  0
  5  6  1  0  0  0  0
  6  1  2  0  0  0  0
  7  5  1  0  0  0  0
  8 15  1  0  0  0  0
  8  7  1  0  0  0  0
  8  9  1  0  0  0  0
  9 17  1  6  0  0  0
  9 18  1  0  0  0  0
  9  4  1  0  0  0  0
 12  6  1  0  0  0  0
 13  7  1  0  0  0  0
 14  7  1  0  0  0  0
 16  8  1  0  0  0  0
 18 22  1  0  0  0  0
 19 21  1  0  0  0  0
 19 18  1  0  0  0  0
 20 19  2  0  0  0  0
 21 23  1  0  0  0  0
 24 25  1  0  0  0  0
 24 21  1  0  0  0  0
 24 26  1  0  0  0  0
 27 24  1  0  0  0  0
 28 27  1  0  0  0  0
 28 34  1  0  0  0  0
 29 28  2  0  0  0  0
 30 32  2  0  0  0  0
 30 29  1  0  0  0  0
 31 30  1  0  0  0  0
 32 33  1  0  0  0  0
 33 37  1  0  0  0  0
 33 27  2  0  0  0  0
 35 29  1  0  0  0  0
 36 32  1  0  0  0  0
 37 39  2  0  0  0  0
 38 41  1  0  0  0  0
 38 37  1  0  0  0  0
 40 38  1  0  0  0  0
 42 43  1  0  0  0  0
 44 45  1  6  0  0  0
 44 42  1  0  0  0  0
 44 57  1  0  0  0  0
 46 47  1  0  0  0  0
 46 44  1  0  0  0  0
 47 53  1  0  0  0  0
 48 54  1  0  0  0  0
 48 47  2  0  0  0  0
 49 48  1  0  0  0  0
 50 49  2  0  0  0  0
 50 51  1  0  0  0  0
 51 46  2  0  0  0  0
 52 51  1  0  0  0  0
 55 49  1  0  0  0  0
 56 50  1  0  0  0  0
 57 58  1  0  0  0  0
 57 59  1  0  0  0  0
 60 57  1  0  0  0  0
M  END
>  <MODEL>
5

>  <REMARK>
 VINA RESULT:    -8.979      2.663      3.965
 INTER + INTRA:         -13.025
 INTER:                 -11.607
 INTRA:                  -1.418
 UNBOUND:                -0.109
  Name = 
  8 active torsions:
  status: ('A' for Active; 'I' for Inactive)
    1  A    between atoms: C_1  and  C_2
    2  A    between atoms: C_2  and  N_3
    3  A    between atoms: C_2  and  C_28
    4  A    between atoms: N_3  and  C_4
    5  A    between atoms: C_12  and  N_13
    6  A    between atoms: N_16  and  C_17
    7  A    between atoms: C_17  and  C_18
    8  A    between atoms: C_24  and  C_25
                            x       y       z     vdW  Elec       q    Type
                         _______ _______ _______ _____ _____    ______ ____

>  <TORSDO>
F 8

$$$$
=
 OpenBabel07192307433D

 60 63  0  0  1  0  0  0  0  0999 V2000
    0.5540   10.6520   19.0880 C   0  0  0  0  0  0  0  0  0  0  0  0
    1.4600   10.3110   18.0610 C   0  0  0  0  0  0  0  0  0  0  0  0
    2.2050    9.1270   18.0910 C   0  0  0  0  0  0  0  0  0  0  0  0
    2.0090    8.2530   19.1430 C   0  0  0  0  0  0  0  0  0  0  0  0
    1.0810    8.5480   20.1430 C   0  0  0  0  0  0  0  0  0  0  0  0
    0.3450    9.7270   20.1200 C   0  0  0  0  0  0  0  0  0  0  0  0
    1.0740    7.4840   21.1990 C   0  0  0  0  0  0  0  0  0  0  0  0
    1.7670    6.3240   20.4660 C   0  0  0  0  0  0  0  0  0  0  0  0
    2.7220    6.9640   19.4390 C   0  0  1  0  0  0  0  0  0  0  0  0
    1.6040   10.9890   17.2220 H   0  0  0  0  0  0  0  0  0  0  0  0
    2.9220    8.9140   17.3070 H   0  0  0  0  0  0  0  0  0  0  0  0
   -0.3640    9.9110   20.9160 H   0  0  0  0  0  0  0  0  0  0  0  0
    0.0610    7.2100   21.5140 H   0  0  0  0  0  0  0  0  0  0  0  0
    1.6590    7.8110   22.0650 H   0  0  0  0  0  0  0  0  0  0  0  0
    1.0040    5.7190   19.9550 H   0  0  0  0  0  0  0  0  0  0  0  0
    2.2920    5.6530   21.1550 H   0  0  0  0  0  0  0  0  0  0  0  0
    3.6950    7.1760   19.9020 H   0  0  0  0  0  0  0  0  0  0  0  0
    2.8970    6.1440   18.2640 N   0  0  0  0  0  0  0  0  0  0  0  0
    3.8820    5.1920   18.2280 C   0  0  0  0  0  0  0  0  0  0  0  0
    4.7170    5.0330   19.1070 O   0  0  0  0  0  0  0  0  0  0  0  0
    3.8150    4.4530   17.0740 N   0  0  0  0  0  0  0  0  0  0  0  0
    2.0570    5.9240   17.7510 H   0  0  0  0  0  0  0  0  0  0  0  0
    3.4510    4.9730   16.2880 H   0  0  0  0  0  0  0  0  0  0  0  0
    4.8560    3.4930   16.7540 C   0  0  0  0  0  0  0  0  0  0  0  0
    4.3860    2.5130   16.6320 H   0  0  0  0  0  0  0  0  0  0  0  0
    5.5090    3.4220   17.6330 H   0  0  0  0  0  0  0  0  0  0  0  0
    5.7020    3.9040   15.5730 C   0  0  0  0  0  0  0  0  0  0  0  0
    5.2870    3.5540   14.2720 C   0  0  0  0  0  0  0  0  0  0  0  0
    6.0200    3.9620   13.1550 C   0  0  0  0  0  0  0  0  0  0  0  0
    7.1650    4.7320   13.3250 C   0  0  0  0  0  0  0  0  0  0  0  0
    7.8590    5.1250   12.2490 F   0  0  0  0  0  0  0  0  0  0  0  0
    7.6000    5.0950   14.5900 C   0  0  0  0  0  0  0  0  0  0  0  0
    6.8770    4.6690   15.7090 C   0  0  0  0  0  0  0  0  0  0  0  0
    4.3870    2.9590   14.1260 H   0  0  0  0  0  0  0  0  0  0  0  0
    5.7040    3.6870   12.1530 H   0  0  0  0  0  0  0  0  0  0  0  0
    8.4990    5.6970   14.7000 H   0  0  0  0  0  0  0  0  0  0  0  0
    7.4110    5.0660   17.0240 C   0  0  0  0  0  0  0  0  0  0  0  0
    8.0750    4.0880   17.7010 N   0  0  0  0  0  0  0  0  0  0  0  0
    7.2770    6.2070   17.4440 O   0  0  0  0  0  0  0  0  0  0  0  0
    8.0040    3.1050   17.4260 H   0  0  0  0  0  0  0  0  0  0  0  0
    8.3670    4.2780   18.6470 H   0  0  0  0  0  0  0  0  0  0  0  0
   -0.1560   11.8540   18.9470 N   0  0  0  0  0  0  0  0  0  0  0  0
   -0.0440   12.2090   17.9970 H   0  0  0  0  0  0  0  0  0  0  0  0
   -0.0260   12.9270   19.9440 C   0  0  1  0  0  0  0  0  0  0  0  0
    0.0390   12.5020   20.9540 H   0  0  0  0  0  0  0  0  0  0  0  0
    1.2540   13.7030   19.6780 C   0  0  0  0  0  0  0  0  0  0  0  0
    1.7670   13.8730   18.3780 C   0  0  0  0  0  0  0  0  0  0  0  0
    2.9490   14.5890   18.1630 C   0  0  0  0  0  0  0  0  0  0  0  0
    3.6390   15.1450   19.2430 C   0  0  0  0  0  0  0  0  0  0  0  0
    3.1400   14.9900   20.5350 C   0  0  0  0  0  0  0  0  0  0  0  0
    1.9580   14.2810   20.7410 C   0  0  0  0  0  0  0  0  0  0  0  0
    1.4940   14.1680   21.9950 F   0  0  0  0  0  0  0  0  0  0  0  0
    1.2420   13.4430   17.5230 H   0  0  0  0  0  0  0  0  0  0  0  0
    3.3360   14.7090   17.1530 H   0  0  0  0  0  0  0  0  0  0  0  0
    4.5590   15.7020   19.0750 H   0  0  0  0  0  0  0  0  0  0  0  0
    3.6610   15.4190   21.3860 H   0  0  0  0  0  0  0  0  0  0  0  0
   -1.2400   13.8590   19.8660 C   0  0  0  0  0  0  0  0  0  0  0  0
   -1.7060   13.8150   18.8760 H   0  0  0  0  0  0  0  0  0  0  0  0
   -2.0030   13.5960   20.6070 H   0  0  0  0  0  0  0  0  0  0  0  0
   -0.9560   14.8990   20.0570 H   0  0  0  0  0  0  0  0  0  0  0  0
  1  6  1  0  0  0  0
  2  3  1  0  0  0  0
  2  1  2  0  0  0  0
  3  4  2  0  0  0  0
  4  9  1  0  0  0  0
  4  5  1  0  0  0  0
  5  7  1  0  0  0  0
  6  5  2  0  0  0  0
  6 12  1  0  0  0  0
  7 13  1  0  0  0  0
  7 14  1  0  0  0  0
  8 16  1  0  0  0  0
  8  7  1  0  0  0  0
  9 17  1  1  0  0  0
  9  8  1  0  0  0  0
 10  2  1  0  0  0  0
 11  3  1  0  0  0  0
 15  8  1  0  0  0  0
 18  9  1  0  0  0  0
 19 18  1  0  0  0  0
 19 20  2  0  0  0  0
 21 19  1  0  0  0  0
 22 18  1  0  0  0  0
 23 21  1  0  0  0  0
 24 21  1  0  0  0  0
 24 26  1  0  0  0  0
 25 24  1  0  0  0  0
 27 33  1  0  0  0  0
 27 24  1  0  0  0  0
 28 27  2  0  0  0  0
 29 30  2  0  0  0  0
 29 28  1  0  0  0  0
 30 32  1  0  0  0  0
 31 30  1  0  0  0  0
 32 36  1  0  0  0  0
 32 33  2  0  0  0  0
 33 37  1  0  0  0  0
 34 28  1  0  0  0  0
 35 29  1  0  0  0  0
 37 39  2  0  0  0  0
 37 38  1  0  0  0  0
 38 41  1  0  0  0  0
 40 38  1  0  0  0  0
 42  1  1  0  0  0  0
 42 44  1  0  0  0  0
 43 42  1  0  0  0  0
 44 45  1  1  0  0  0
 46 44  1  0  0  0  0
 46 51  1  0  0  0  0
 47 46  2  0  0  0  0
 48 47  1  0  0  0  0
 48 49  2  0  0  0  0
 49 50  1  0  0  0  0
 50 51  2  0  0  0  0
 50 56  1  0  0  0  0
 51 52  1  0  0  0  0
 53 47  1  0  0  0  0
 54 48  1  0  0  0  0
 55 49  1  0  0  0  0
 57 44  1  0  0  0  0
 57 60  1  0  0  0  0
 57 59  1  0  0  0  0
 58 57  1  0  0  0  0
M  END
>  <MODEL>
6

>  <REMARK>
 VINA RESULT:    -8.934      2.128      3.379
 INTER + INTRA:         -12.960
 INTER:                 -11.561
 INTRA:                  -1.399
 UNBOUND:                -0.109
  Name = 
  8 active torsions:
  status: ('A' for Active; 'I' for Inactive)
    1  A    between atoms: C_1  and  C_2
    2  A    between atoms: C_2  and  N_3
    3  A    between atoms: C_2  and  C_28
    4  A    between atoms: N_3  and  C_4
    5  A    between atoms: C_12  and  N_13
    6  A    between atoms: N_16  and  C_17
    7  A    between atoms: C_17  and  C_18
    8  A    between atoms: C_24  and  C_25
                            x       y       z     vdW  Elec       q    Type
                         _______ _______ _______ _____ _____    ______ ____

>  <TORSDO>
F 8

$$$$
=
 OpenBabel07192307433D

 60 63  0  0  1  0  0  0  0  0999 V2000
    2.4770    4.8900   18.8640 C   0  0  0  0  0  0  0  0  0  0  0  0
    2.0460    5.0270   20.2020 C   0  0  0  0  0  0  0  0  0  0  0  0
    1.7400    6.2730   20.7590 C   0  0  0  0  0  0  0  0  0  0  0  0
    1.8270    7.3940   19.9540 C   0  0  0  0  0  0  0  0  0  0  0  0
    2.2030    7.2740   18.6150 C   0  0  0  0  0  0  0  0  0  0  0  0
    2.5150    6.0380   18.0610 C   0  0  0  0  0  0  0  0  0  0  0  0
    2.2730    8.6190   17.9570 C   0  0  0  0  0  0  0  0  0  0  0  0
    1.4560    9.4790   18.9330 C   0  0  0  0  0  0  0  0  0  0  0  0
    1.6190    8.8340   20.3250 C   0  0  1  0  0  0  0  0  0  0  0  0
    1.9600    4.1450   20.8330 H   0  0  0  0  0  0  0  0  0  0  0  0
    1.4510    6.3480   21.8010 H   0  0  0  0  0  0  0  0  0  0  0  0
    2.7990    5.9960   17.0180 H   0  0  0  0  0  0  0  0  0  0  0  0
    1.8290    8.6200   16.9550 H   0  0  0  0  0  0  0  0  0  0  0  0
    3.3130    8.9570   17.9050 H   0  0  0  0  0  0  0  0  0  0  0  0
    0.4010    9.4650   18.6240 H   0  0  0  0  0  0  0  0  0  0  0  0
    1.7730   10.5280   18.9260 H   0  0  0  0  0  0  0  0  0  0  0  0
    2.5160    9.2230   20.8240 H   0  0  0  0  0  0  0  0  0  0  0  0
    0.4580    9.0310   21.1610 N   0  0  0  0  0  0  0  0  0  0  0  0
    0.1610   10.2770   21.6460 C   0  0  0  0  0  0  0  0  0  0  0  0
    0.8730   11.2600   21.4990 O   0  0  0  0  0  0  0  0  0  0  0  0
   -1.0300   10.2730   22.3270 N   0  0  0  0  0  0  0  0  0  0  0  0
   -0.3330    8.4370   20.9640 H   0  0  0  0  0  0  0  0  0  0  0  0
   -1.2320    9.3890   22.7720 H   0  0  0  0  0  0  0  0  0  0  0  0
   -1.4640   11.4500   23.0580 C   0  0  0  0  0  0  0  0  0  0  0  0
   -0.5710   11.9920   23.3840 H   0  0  0  0  0  0  0  0  0  0  0  0
   -1.9680   11.0970   23.9650 H   0  0  0  0  0  0  0  0  0  0  0  0
   -2.4360   12.3060   22.2820 C   0  0  0  0  0  0  0  0  0  0  0  0
   -2.2910   12.4220   20.8850 C   0  0  0  0  0  0  0  0  0  0  0  0
   -3.2030   13.1660   20.1330 C   0  0  0  0  0  0  0  0  0  0  0  0
   -4.2730   13.7900   20.7640 C   0  0  0  0  0  0  0  0  0  0  0  0
   -5.1470   14.4960   20.0350 F   0  0  0  0  0  0  0  0  0  0  0  0
   -4.4460   13.6940   22.1360 C   0  0  0  0  0  0  0  0  0  0  0  0
   -3.5210   12.9660   22.8920 C   0  0  0  0  0  0  0  0  0  0  0  0
   -1.4620   11.9320   20.3780 H   0  0  0  0  0  0  0  0  0  0  0  0
   -3.0870   13.2610   19.0570 H   0  0  0  0  0  0  0  0  0  0  0  0
   -5.2890   14.1910   22.6100 H   0  0  0  0  0  0  0  0  0  0  0  0
   -3.7480   12.9300   24.3470 C   0  0  0  0  0  0  0  0  0  0  0  0
   -4.5110   11.8920   24.7920 N   0  0  0  0  0  0  0  0  0  0  0  0
   -3.2560   13.7710   25.0870 O   0  0  0  0  0  0  0  0  0  0  0  0
   -5.0680   11.3240   24.1480 H   0  0  0  0  0  0  0  0  0  0  0  0
   -4.7820   11.8820   25.7620 H   0  0  0  0  0  0  0  0  0  0  0  0
    2.7380    3.5920   18.4020 N   0  0  0  0  0  0  0  0  0  0  0  0
    2.0030    2.9600   18.7200 H   0  0  0  0  0  0  0  0  0  0  0  0
    4.0710    2.9910   18.5560 C   0  0  1  0  0  0  0  0  0  0  0  0
    4.1940    2.1540   17.8570 H   0  0  0  0  0  0  0  0  0  0  0  0
    5.1290    4.0330   18.2310 C   0  0  0  0  0  0  0  0  0  0  0  0
    5.8220    4.7320   19.2380 C   0  0  0  0  0  0  0  0  0  0  0  0
    6.7870    5.6890   18.9100 C   0  0  0  0  0  0  0  0  0  0  0  0
    7.0750    5.9660   17.5720 C   0  0  0  0  0  0  0  0  0  0  0  0
    6.4020    5.2780   16.5640 C   0  0  0  0  0  0  0  0  0  0  0  0
    5.4440    4.3210   16.8980 C   0  0  0  0  0  0  0  0  0  0  0  0
    4.8300    3.6620   15.9040 F   0  0  0  0  0  0  0  0  0  0  0  0
    5.6080    4.5310   20.2890 H   0  0  0  0  0  0  0  0  0  0  0  0
    7.3130    6.2240   19.6990 H   0  0  0  0  0  0  0  0  0  0  0  0
    7.8270    6.7110   17.3170 H   0  0  0  0  0  0  0  0  0  0  0  0
    6.6150    5.4770   15.5180 H   0  0  0  0  0  0  0  0  0  0  0  0
    4.2490    2.4800   19.9900 C   0  0  0  0  0  0  0  0  0  0  0  0
    3.2970    2.4850   20.5300 H   0  0  0  0  0  0  0  0  0  0  0  0
    4.6410    1.4580   20.0120 H   0  0  0  0  0  0  0  0  0  0  0  0
    4.9540    3.1050   20.5490 H   0  0  0  0  0  0  0  0  0  0  0  0
  1  2  1  0  0  0  0
  2  3  2  0  0  0  0
  2 10  1  0  0  0  0
  3 11  1  0  0  0  0
  4  9  1  0  0  0  0
  4  3  1  0  0  0  0
  5  4  2  0  0  0  0
  6  5  1  0  0  0  0
  6  1  2  0  0  0  0
  7  5  1  0  0  0  0
  7  8  1  0  0  0  0
  8  9  1  0  0  0  0
  9 17  1  1  0  0  0
  9 18  1  0  0  0  0
 12  6  1  0  0  0  0
 13  7  1  0  0  0  0
 14  7  1  0  0  0  0
 15  8  1  0  0  0  0
 16  8  1  0  0  0  0
 18 19  1  0  0  0  0
 19 21  1  0  0  0  0
 20 19  2  0  0  0  0
 21 23  1  0  0  0  0
 21 24  1  0  0  0  0
 22 18  1  0  0  0  0
 24 25  1  0  0  0  0
 24 26  1  0  0  0  0
 27 33  1  0  0  0  0
 27 24  1  0  0  0  0
 28 27  2  0  0  0  0
 29 30  2  0  0  0  0
 29 28  1  0  0  0  0
 30 32  1  0  0  0  0
 31 30  1  0  0  0  0
 32 36  1  0  0  0  0
 32 33  2  0  0  0  0
 33 37  1  0  0  0  0
 34 28  1  0  0  0  0
 35 29  1  0  0  0  0
 37 38  1  0  0  0  0
 37 39  2  0  0  0  0
 38 41  1  0  0  0  0
 40 38  1  0  0  0  0
 42 44  1  0  0  0  0
 42 43  1  0  0  0  0
 42  1  1  0  0  0  0
 44 45  1  6  0  0  0
 44 57  1  0  0  0  0
 46 44  1  0  0  0  0
 46 47  1  0  0  0  0
 47 53  1  0  0  0  0
 48 47  2  0  0  0  0
 48 54  1  0  0  0  0
 49 48  1  0  0  0  0
 50 51  1  0  0  0  0
 50 49  2  0  0  0  0
 51 46  2  0  0  0  0
 52 51  1  0  0  0  0
 55 49  1  0  0  0  0
 56 50  1  0  0  0  0
 57 59  1  0  0  0  0
 57 58  1  0  0  0  0
 57 60  1  0  0  0  0
M  END
>  <MODEL>
7

>  <REMARK>
 VINA RESULT:    -8.875      4.015     11.035
 INTER + INTRA:         -12.875
 INTER:                 -12.013
 INTRA:                  -0.862
 UNBOUND:                -0.109
  Name = 
  8 active torsions:
  status: ('A' for Active; 'I' for Inactive)
    1  A    between atoms: C_1  and  C_2
    2  A    between atoms: C_2  and  N_3
    3  A    between atoms: C_2  and  C_28
    4  A    between atoms: N_3  and  C_4
    5  A    between atoms: C_12  and  N_13
    6  A    between atoms: N_16  and  C_17
    7  A    between atoms: C_17  and  C_18
    8  A    between atoms: C_24  and  C_25
                            x       y       z     vdW  Elec       q    Type
                         _______ _______ _______ _____ _____    ______ ____

>  <TORSDO>
F 8

$$$$
=
 OpenBabel07192307433D

 60 63  0  0  1  0  0  0  0  0999 V2000
    4.1140    3.1740   17.2740 C   0  0  0  0  0  0  0  0  0  0  0  0
    2.9740    3.9760   17.0490 C   0  0  0  0  0  0  0  0  0  0  0  0
    1.9870    4.1530   18.0260 C   0  0  0  0  0  0  0  0  0  0  0  0
    2.1650    3.5530   19.2580 C   0  0  0  0  0  0  0  0  0  0  0  0
    3.3100    2.7970   19.5170 C   0  0  0  0  0  0  0  0  0  0  0  0
    4.2880    2.6130   18.5470 C   0  0  0  0  0  0  0  0  0  0  0  0
    3.2620    2.2090   20.8950 C   0  0  0  0  0  0  0  0  0  0  0  0
    2.1860    3.0800   21.5620 C   0  0  0  0  0  0  0  0  0  0  0  0
    1.2340    3.5350   20.4370 C   0  0  1  0  0  0  0  0  0  0  0  0
    2.8390    4.4630   16.0860 H   0  0  0  0  0  0  0  0  0  0  0  0
    1.1040    4.7420   17.8070 H   0  0  0  0  0  0  0  0  0  0  0  0
    5.1580    2.0210   18.7950 H   0  0  0  0  0  0  0  0  0  0  0  0
    4.2220    2.2870   21.4180 H   0  0  0  0  0  0  0  0  0  0  0  0
    2.9490    1.1610   20.8440 H   0  0  0  0  0  0  0  0  0  0  0  0
    2.6710    3.9500   22.0290 H   0  0  0  0  0  0  0  0  0  0  0  0
    1.6560    2.5470   22.3590 H   0  0  0  0  0  0  0  0  0  0  0  0
    0.4470    2.7870   20.2760 H   0  0  0  0  0  0  0  0  0  0  0  0
    0.6470    4.8280   20.7010 N   0  0  0  0  0  0  0  0  0  0  0  0
    1.4450    5.9350   20.8190 C   0  0  0  0  0  0  0  0  0  0  0  0
    2.6670    5.9080   20.8090 O   0  0  0  0  0  0  0  0  0  0  0  0
    0.6920    7.0740   20.9630 N   0  0  0  0  0  0  0  0  0  0  0  0
   -0.2670    4.9860   20.3050 H   0  0  0  0  0  0  0  0  0  0  0  0
   -0.1890    6.9130   21.4290 H   0  0  0  0  0  0  0  0  0  0  0  0
    1.3300    8.3440   21.2600 C   0  0  0  0  0  0  0  0  0  0  0  0
    2.4050    8.2280   21.0970 H   0  0  0  0  0  0  0  0  0  0  0  0
    1.1920    8.5290   22.3320 H   0  0  0  0  0  0  0  0  0  0  0  0
    0.7290    9.5020   20.5010 C   0  0  0  0  0  0  0  0  0  0  0  0
    1.0680    9.6900   19.1470 C   0  0  0  0  0  0  0  0  0  0  0  0
    0.4920   10.7230   18.4030 C   0  0  0  0  0  0  0  0  0  0  0  0
   -0.4370   11.5680   19.0000 C   0  0  0  0  0  0  0  0  0  0  0  0
   -0.9900   12.5520   18.2790 F   0  0  0  0  0  0  0  0  0  0  0  0
   -0.7940   11.4110   20.3300 C   0  0  0  0  0  0  0  0  0  0  0  0
   -0.2010   10.3890   21.0800 C   0  0  0  0  0  0  0  0  0  0  0  0
    1.7870    9.0290   18.6660 H   0  0  0  0  0  0  0  0  0  0  0  0
    0.7580   10.8710   17.3600 H   0  0  0  0  0  0  0  0  0  0  0  0
   -1.5210   12.0840   20.7770 H   0  0  0  0  0  0  0  0  0  0  0  0
   -0.6040   10.2970   22.4940 C   0  0  0  0  0  0  0  0  0  0  0  0
   -0.9260   11.4810   23.0850 N   0  0  0  0  0  0  0  0  0  0  0  0
   -0.6620    9.2180   23.0670 O   0  0  0  0  0  0  0  0  0  0  0  0
   -0.6850   12.3770   22.6540 H   0  0  0  0  0  0  0  0  0  0  0  0
   -1.1060   11.4840   24.0770 H   0  0  0  0  0  0  0  0  0  0  0  0
    5.0500    3.0810   16.2340 N   0  0  0  0  0  0  0  0  0  0  0  0
    5.8250    2.4840   16.5210 H   0  0  0  0  0  0  0  0  0  0  0  0
    5.5260    4.2870   15.5380 C   0  0  1  0  0  0  0  0  0  0  0  0
    4.6750    4.8730   15.1680 H   0  0  0  0  0  0  0  0  0  0  0  0
    6.3020    5.1540   16.5160 C   0  0  0  0  0  0  0  0  0  0  0  0
    7.2790    4.6160   17.3760 C   0  0  0  0  0  0  0  0  0  0  0  0
    7.9760    5.4370   18.2690 C   0  0  0  0  0  0  0  0  0  0  0  0
    7.7070    6.8060   18.3190 C   0  0  0  0  0  0  0  0  0  0  0  0
    6.7480    7.3530   17.4690 C   0  0  0  0  0  0  0  0  0  0  0  0
    6.0610    6.5310   16.5770 C   0  0  0  0  0  0  0  0  0  0  0  0
    5.1590    7.0930   15.7590 F   0  0  0  0  0  0  0  0  0  0  0  0
    7.5000    3.5480   17.3530 H   0  0  0  0  0  0  0  0  0  0  0  0
    8.7250    5.0070   18.9310 H   0  0  0  0  0  0  0  0  0  0  0  0
    8.2500    7.4440   19.0140 H   0  0  0  0  0  0  0  0  0  0  0  0
    6.5290    8.4170   17.4910 H   0  0  0  0  0  0  0  0  0  0  0  0
    6.4160    3.8880   14.3560 C   0  0  0  0  0  0  0  0  0  0  0  0
    6.9890    4.7460   13.9880 H   0  0  0  0  0  0  0  0  0  0  0  0
    7.1280    3.1030   14.6300 H   0  0  0  0  0  0  0  0  0  0  0  0
    5.8200    3.5020   13.5220 H   0  0  0  0  0  0  0  0  0  0  0  0
  1  6  1  0  0  0  0
  2  1  2  0  0  0  0
  2  3  1  0  0  0  0
  3  4  2  0  0  0  0
  4  5  1  0  0  0  0
  4  9  1  0  0  0  0
  5  7  1  0  0  0  0
  6 12  1  0  0  0  0
  6  5  2  0  0  0  0
  7 13  1  0  0  0  0
  7  8  1  0  0  0  0
  8 15  1  0  0  0  0
  8 16  1  0  0  0  0
  9 17  1  6  0  0  0
  9 18  1  0  0  0  0
  9  8  1  0  0  0  0
 10  2  1  0  0  0  0
 11  3  1  0  0  0  0
 14  7  1  0  0  0  0
 18 19  1  0  0  0  0
 19 21  1  0  0  0  0
 20 19  2  0  0  0  0
 21 24  1  0  0  0  0
 21 23  1  0  0  0  0
 22 18  1  0  0  0  0
 24 26  1  0  0  0  0
 25 24  1  0  0  0  0
 27 33  1  0  0  0  0
 27 24  1  0  0  0  0
 28 27  2  0  0  0  0
 29 30  2  0  0  0  0
 29 28  1  0  0  0  0
 30 32  1  0  0  0  0
 31 30  1  0  0  0  0
 32 36  1  0  0  0  0
 32 33  2  0  0  0  0
 33 37  1  0  0  0  0
 34 28  1  0  0  0  0
 35 29  1  0  0  0  0
 37 39  2  0  0  0  0
 37 38  1  0  0  0  0
 38 41  1  0  0  0  0
 40 38  1  0  0  0  0
 42 43  1  0  0  0  0
 42  1  1  0  0  0  0
 44 45  1  6  0  0  0
 44 42  1  0  0  0  0
 44 46  1  0  0  0  0
 46 51  2  0  0  0  0
 46 47  1  0  0  0  0
 47 48  2  0  0  0  0
 48 49  1  0  0  0  0
 48 54  1  0  0  0  0
 49 55  1  0  0  0  0
 50 56  1  0  0  0  0
 50 49  2  0  0  0  0
 51 50  1  0  0  0  0
 52 51  1  0  0  0  0
 53 47  1  0  0  0  0
 57 59  1  0  0  0  0
 57 44  1  0  0  0  0
 58 57  1  0  0  0  0
 60 57  1  0  0  0  0
M  END
>  <MODEL>
8

>  <REMARK>
 VINA RESULT:    -8.794      2.715      9.265
 INTER + INTRA:         -12.759
 INTER:                 -12.348
 INTRA:                  -0.412
 UNBOUND:                -0.109
  Name = 
  8 active torsions:
  status: ('A' for Active; 'I' for Inactive)
    1  A    between atoms: C_1  and  C_2
    2  A    between atoms: C_2  and  N_3
    3  A    between atoms: C_2  and  C_28
    4  A    between atoms: N_3  and  C_4
    5  A    between atoms: C_12  and  N_13
    6  A    between atoms: N_16  and  C_17
    7  A    between atoms: C_17  and  C_18
    8  A    between atoms: C_24  and  C_25
                            x       y       z     vdW  Elec       q    Type
                         _______ _______ _______ _____ _____    ______ ____

>  <TORSDO>
F 8

$$$$
=
 OpenBabel07192307433D

 60 63  0  0  1  0  0  0  0  0999 V2000
    4.1040    5.2520   17.1600 C   0  0  0  0  0  0  0  0  0  0  0  0
    3.8130    6.6330   17.1450 C   0  0  0  0  0  0  0  0  0  0  0  0
    2.9560    7.2200   18.0820 C   0  0  0  0  0  0  0  0  0  0  0  0
    2.4140    6.4220   19.0710 C   0  0  0  0  0  0  0  0  0  0  0  0
    2.7280    5.0630   19.1320 C   0  0  0  0  0  0  0  0  0  0  0  0
    3.5740    4.4750   18.1990 C   0  0  0  0  0  0  0  0  0  0  0  0
    1.9910    4.3930   20.2530 C   0  0  0  0  0  0  0  0  0  0  0  0
    1.5760    5.6000   21.1080 C   0  0  0  0  0  0  0  0  0  0  0  0
    1.4260    6.7910   20.1400 C   0  0  1  0  0  0  0  0  0  0  0  0
    4.2520    7.2680   16.3780 H   0  0  0  0  0  0  0  0  0  0  0  0
    2.7220    8.2770   18.0180 H   0  0  0  0  0  0  0  0  0  0  0  0
    3.7890    3.4180   18.2890 H   0  0  0  0  0  0  0  0  0  0  0  0
    2.6250    3.7010   20.8180 H   0  0  0  0  0  0  0  0  0  0  0  0
    1.1160    3.8640   19.8620 H   0  0  0  0  0  0  0  0  0  0  0  0
    2.3650    5.8020   21.8470 H   0  0  0  0  0  0  0  0  0  0  0  0
    0.6560    5.4110   21.6730 H   0  0  0  0  0  0  0  0  0  0  0  0
    0.4130    6.8160   19.7180 H   0  0  0  0  0  0  0  0  0  0  0  0
    1.7350    8.0540   20.7690 N   0  0  0  0  0  0  0  0  0  0  0  0
    1.1220    9.2030   20.3440 C   0  0  0  0  0  0  0  0  0  0  0  0
    0.3740    9.2680   19.3800 O   0  0  0  0  0  0  0  0  0  0  0  0
    1.4690   10.2700   21.1340 N   0  0  0  0  0  0  0  0  0  0  0  0
    1.9570    8.0140   21.7520 H   0  0  0  0  0  0  0  0  0  0  0  0
    2.3960   10.1910   21.5270 H   0  0  0  0  0  0  0  0  0  0  0  0
    1.0600   11.6160   20.7740 C   0  0  0  0  0  0  0  0  0  0  0  0
    1.3090   11.7740   19.7200 H   0  0  0  0  0  0  0  0  0  0  0  0
    1.6840   12.3070   21.3520 H   0  0  0  0  0  0  0  0  0  0  0  0
   -0.3860   11.9040   21.0970 C   0  0  0  0  0  0  0  0  0  0  0  0
   -0.8400   11.7510   22.4230 C   0  0  0  0  0  0  0  0  0  0  0  0
   -2.1600   12.0580   22.7650 C   0  0  0  0  0  0  0  0  0  0  0  0
   -3.0330   12.5300   21.7920 C   0  0  0  0  0  0  0  0  0  0  0  0
   -4.2950   12.8280   22.1290 F   0  0  0  0  0  0  0  0  0  0  0  0
   -2.6190   12.6930   20.4790 C   0  0  0  0  0  0  0  0  0  0  0  0
   -1.3030   12.3670   20.1330 C   0  0  0  0  0  0  0  0  0  0  0  0
   -0.1630   11.3900   23.1950 H   0  0  0  0  0  0  0  0  0  0  0  0
   -2.5110   11.9340   23.7850 H   0  0  0  0  0  0  0  0  0  0  0  0
   -3.3190   13.0630   19.7340 H   0  0  0  0  0  0  0  0  0  0  0  0
   -0.9380   12.5370   18.7160 C   0  0  0  0  0  0  0  0  0  0  0  0
   -1.1710   11.4550   17.9220 N   0  0  0  0  0  0  0  0  0  0  0  0
   -0.4830   13.5930   18.3000 O   0  0  0  0  0  0  0  0  0  0  0  0
   -1.3620   10.5310   18.3190 H   0  0  0  0  0  0  0  0  0  0  0  0
   -0.8420   11.4830   16.9700 H   0  0  0  0  0  0  0  0  0  0  0  0
    4.9930    4.7710   16.1870 N   0  0  0  0  0  0  0  0  0  0  0  0
    5.3200    3.8420   16.4500 H   0  0  0  0  0  0  0  0  0  0  0  0
    6.0930    5.6110   15.6910 C   0  0  1  0  0  0  0  0  0  0  0  0
    5.6950    6.4760   15.1460 H   0  0  0  0  0  0  0  0  0  0  0  0
    6.8970    6.1300   16.8720 C   0  0  0  0  0  0  0  0  0  0  0  0
    7.2450    7.4890   16.9980 C   0  0  0  0  0  0  0  0  0  0  0  0
    7.9890    7.9380   18.0940 C   0  0  0  0  0  0  0  0  0  0  0  0
    8.3990    7.0380   19.0800 C   0  0  0  0  0  0  0  0  0  0  0  0
    8.0560    5.6920   18.9720 C   0  0  0  0  0  0  0  0  0  0  0  0
    7.3090    5.2520   17.8800 C   0  0  0  0  0  0  0  0  0  0  0  0
    6.9780    3.9530   17.8170 F   0  0  0  0  0  0  0  0  0  0  0  0
    6.9360    8.2060   16.2360 H   0  0  0  0  0  0  0  0  0  0  0  0
    8.2550    8.9900   18.1760 H   0  0  0  0  0  0  0  0  0  0  0  0
    8.9780    7.3890   19.9330 H   0  0  0  0  0  0  0  0  0  0  0  0
    8.3630    4.9780   19.7310 H   0  0  0  0  0  0  0  0  0  0  0  0
    6.9900    4.7940   14.7540 C   0  0  0  0  0  0  0  0  0  0  0  0
    7.1280    3.7750   15.1320 H   0  0  0  0  0  0  0  0  0  0  0  0
    6.5680    4.7230   13.7460 H   0  0  0  0  0  0  0  0  0  0  0  0
    7.9810    5.2510   14.6550 H   0  0  0  0  0  0  0  0  0  0  0  0
  1  6  1  0  0  0  0
  2  1  2  0  0  0  0
  2  3  1  0  0  0  0
  3  4  2  0  0  0  0
  4  5  1  0  0  0  0
  4  9  1  0  0  0  0
  5  7  1  0  0  0  0
  6 12  1  0  0  0  0
  6  5  2  0  0  0  0
  7 13  1  0  0  0  0
  7  8  1  0  0  0  0
  8 16  1  0  0  0  0
  8 15  1  0  0  0  0
  9 17  1  6  0  0  0
  9 18  1  0  0  0  0
  9  8  1  0  0  0  0
 10  2  1  0  0  0  0
 11  3  1  0  0  0  0
 14  7  1  0  0  0  0
 18 22  1  0  0  0  0
 19 18  1  0  0  0  0
 19 21  1  0  0  0  0
 20 19  2  0  0  0  0
 21 23  1  0  0  0  0
 24 27  1  0  0  0  0
 24 21  1  0  0  0  0
 24 26  1  0  0  0  0
 25 24  1  0  0  0  0
 27 28  1  0  0  0  0
 28 29  2  0  0  0  0
 28 34  1  0  0  0  0
 29 35  1  0  0  0  0
 30 31  1  0  0  0  0
 30 29  1  0  0  0  0
 32 30  2  0  0  0  0
 33 32  1  0  0  0  0
 33 27  2  0  0  0  0
 36 32  1  0  0  0  0
 37 33  1  0  0  0  0
 38 40  1  0  0  0  0
 38 37  1  0  0  0  0
 39 37  2  0  0  0  0
 41 38  1  0  0  0  0
 42 43  1  0  0  0  0
 42  1  1  0  0  0  0
 44 45  1  6  0  0  0
 44 42  1  0  0  0  0
 44 46  1  0  0  0  0
 46 47  2  0  0  0  0
 46 51  1  0  0  0  0
 47 48  1  0  0  0  0
 48 54  1  0  0  0  0
 48 49  2  0  0  0  0
 49 55  1  0  0  0  0
 50 49  1  0  0  0  0
 50 56  1  0  0  0  0
 51 50  2  0  0  0  0
 52 51  1  0  0  0  0
 53 47  1  0  0  0  0
 57 58  1  0  0  0  0
 57 44  1  0  0  0  0
 59 57  1  0  0  0  0
 60 57  1  0  0  0  0
M  END
>  <MODEL>
9

>  <REMARK>
 VINA RESULT:    -8.770      3.270     10.128
 INTER + INTRA:         -12.724
 INTER:                 -11.671
 INTRA:                  -1.052
 UNBOUND:                -0.109
  Name = 
  8 active torsions:
  status: ('A' for Active; 'I' for Inactive)
    1  A    between atoms: C_1  and  C_2
    2  A    between atoms: C_2  and  N_3
    3  A    between atoms: C_2  and  C_28
    4  A    between atoms: N_3  and  C_4
    5  A    between atoms: C_12  and  N_13
    6  A    between atoms: N_16  and  C_17
    7  A    between atoms: C_17  and  C_18
    8  A    between atoms: C_24  and  C_25
                            x       y       z     vdW  Elec       q    Type
                         _______ _______ _______ _____ _____    ______ ____

>  <TORSDO>
F 8

$$$$
=
 OpenBabel07192307433D

 60 63  0  0  1  0  0  0  0  0999 V2000
    4.3030    6.1450   17.0960 C   0  0  0  0  0  0  0  0  0  0  0  0
    3.8550    7.4760   17.2340 C   0  0  0  0  0  0  0  0  0  0  0  0
    2.9040    7.8430   18.1930 C   0  0  0  0  0  0  0  0  0  0  0  0
    2.4280    6.8720   19.0520 C   0  0  0  0  0  0  0  0  0  0  0  0
    2.8960    5.5590   18.9640 C   0  0  0  0  0  0  0  0  0  0  0  0
    3.8340    5.1900   18.0080 C   0  0  0  0  0  0  0  0  0  0  0  0
    2.2060    4.6770   19.9610 C   0  0  0  0  0  0  0  0  0  0  0  0
    1.6250    5.7140   20.9350 C   0  0  0  0  0  0  0  0  0  0  0  0
    1.3690    6.9930   20.1110 C   0  0  1  0  0  0  0  0  0  0  0  0
    4.2410    8.2470   16.5690 H   0  0  0  0  0  0  0  0  0  0  0  0
    2.5510    8.8660   18.2450 H   0  0  0  0  0  0  0  0  0  0  0  0
    4.1680    4.1610   17.9810 H   0  0  0  0  0  0  0  0  0  0  0  0
    2.8970    3.9950   20.4680 H   0  0  0  0  0  0  0  0  0  0  0  0
    1.4110    4.1060   19.4690 H   0  0  0  0  0  0  0  0  0  0  0  0
    2.3610    5.9100   21.7280 H   0  0  0  0  0  0  0  0  0  0  0  0
    0.7160    5.3550   21.4300 H   0  0  0  0  0  0  0  0  0  0  0  0
    0.3740    6.9560   19.6480 H   0  0  0  0  0  0  0  0  0  0  0  0
    1.5080    8.1940   20.9010 N   0  0  0  0  0  0  0  0  0  0  0  0
    0.8720    9.3450   20.5210 C   0  0  0  0  0  0  0  0  0  0  0  0
    0.2450    9.4740   19.4790 O   0  0  0  0  0  0  0  0  0  0  0  0
    1.0420   10.3370   21.4540 N   0  0  0  0  0  0  0  0  0  0  0  0
    1.6110    8.0580   21.8950 H   0  0  0  0  0  0  0  0  0  0  0  0
    1.9180   10.2680   21.9530 H   0  0  0  0  0  0  0  0  0  0  0  0
    0.5860   11.6880   21.1830 C   0  0  0  0  0  0  0  0  0  0  0  0
    0.7760   11.9040   20.1280 H   0  0  0  0  0  0  0  0  0  0  0  0
    1.2250   12.3650   21.7630 H   0  0  0  0  0  0  0  0  0  0  0  0
   -0.8470   11.9250   21.5960 C   0  0  0  0  0  0  0  0  0  0  0  0
   -1.2310   11.6740   22.9280 C   0  0  0  0  0  0  0  0  0  0  0  0
   -2.5370   11.9310   23.3540 C   0  0  0  0  0  0  0  0  0  0  0  0
   -3.4660   12.4500   22.4600 C   0  0  0  0  0  0  0  0  0  0  0  0
   -4.7140   12.6990   22.8770 F   0  0  0  0  0  0  0  0  0  0  0  0
   -3.1200   12.7090   21.1430 C   0  0  0  0  0  0  0  0  0  0  0  0
   -1.8180   12.4340   20.7110 C   0  0  0  0  0  0  0  0  0  0  0  0
   -0.5110   11.2760   23.6400 H   0  0  0  0  0  0  0  0  0  0  0  0
   -2.8350   11.7320   24.3800 H   0  0  0  0  0  0  0  0  0  0  0  0
   -3.8630   13.1140   20.4590 H   0  0  0  0  0  0  0  0  0  0  0  0
   -1.5270   12.7050   19.2930 C   0  0  0  0  0  0  0  0  0  0  0  0
   -1.0110   13.9380   19.0310 N   0  0  0  0  0  0  0  0  0  0  0  0
   -1.7210   11.8580   18.4320 O   0  0  0  0  0  0  0  0  0  0  0  0
   -1.0420   14.6900   19.7250 H   0  0  0  0  0  0  0  0  0  0  0  0
   -0.8940   14.2110   18.0680 H   0  0  0  0  0  0  0  0  0  0  0  0
    5.2740    5.8910   16.1140 N   0  0  0  0  0  0  0  0  0  0  0  0
    4.9690    6.2790   15.2220 H   0  0  0  0  0  0  0  0  0  0  0  0
    5.8470    4.5460   15.9510 C   0  0  1  0  0  0  0  0  0  0  0  0
    5.1130    3.7830   16.2390 H   0  0  0  0  0  0  0  0  0  0  0  0
    6.2020    4.3290   14.4890 C   0  0  0  0  0  0  0  0  0  0  0  0
    5.4520    3.4730   13.6590 C   0  0  0  0  0  0  0  0  0  0  0  0
    5.8050    3.2880   12.3180 C   0  0  0  0  0  0  0  0  0  0  0  0
    6.9110    3.9530   11.7860 C   0  0  0  0  0  0  0  0  0  0  0  0
    7.6590    4.8070   12.5940 C   0  0  0  0  0  0  0  0  0  0  0  0
    7.2990    4.9910   13.9280 C   0  0  0  0  0  0  0  0  0  0  0  0
    8.0270    5.8370   14.6730 F   0  0  0  0  0  0  0  0  0  0  0  0
    4.5860    2.9440   14.0590 H   0  0  0  0  0  0  0  0  0  0  0  0
    5.2180    2.6210   11.6890 H   0  0  0  0  0  0  0  0  0  0  0  0
    7.1850    3.8080   10.7420 H   0  0  0  0  0  0  0  0  0  0  0  0
    8.5210    5.3350   12.1960 H   0  0  0  0  0  0  0  0  0  0  0  0
    7.0940    4.4030   16.8300 C   0  0  0  0  0  0  0  0  0  0  0  0
    6.8330    4.4360   17.8930 H   0  0  0  0  0  0  0  0  0  0  0  0
    7.6170    3.4590   16.6430 H   0  0  0  0  0  0  0  0  0  0  0  0
    7.8110    5.2080   16.6360 H   0  0  0  0  0  0  0  0  0  0  0  0
  1  2  2  0  0  0  0
  1  6  1  0  0  0  0
  2  3  1  0  0  0  0
  3 11  1  0  0  0  0
  3  4  2  0  0  0  0
  4  9  1  0  0  0  0
  5  4  1  0  0  0  0
  5  7  1  0  0  0  0
  6  5  2  0  0  0  0
  7 13  1  0  0  0  0
  7  8  1  0  0  0  0
  8 16  1  0  0  0  0
  8 15  1  0  0  0  0
  9 17  1  6  0  0  0
  9 18  1  0  0  0  0
  9  8  1  0  0  0  0
 10  2  1  0  0  0  0
 12  6  1  0  0  0  0
 14  7  1  0  0  0  0
 18 22  1  0  0  0  0
 19 18  1  0  0  0  0
 19 21  1  0  0  0  0
 20 19  2  0  0  0  0
 21 23  1  0  0  0  0
 24 21  1  0  0  0  0
 24 27  1  0  0  0  0
 24 26  1  0  0  0  0
 25 24  1  0  0  0  0
 27 28  1  0  0  0  0
 28 29  2  0  0  0  0
 28 34  1  0  0  0  0
 29 35  1  0  0  0  0
 30 31  1  0  0  0  0
 30 29  1  0  0  0  0
 32 30  2  0  0  0  0
 33 32  1  0  0  0  0
 33 27  2  0  0  0  0
 36 32  1  0  0  0  0
 37 33  1  0  0  0  0
 38 37  1  0  0  0  0
 38 40  1  0  0  0  0
 39 37  2  0  0  0  0
 41 38  1  0  0  0  0
 42  1  1  0  0  0  0
 43 42  1  0  0  0  0
 44 42  1  0  0  0  0
 44 45  1  1  0  0  0
 44 57  1  0  0  0  0
 46 44  1  0  0  0  0
 47 53  1  0  0  0  0
 47 46  2  0  0  0  0
 48 47  1  0  0  0  0
 49 48  2  0  0  0  0
 49 50  1  0  0  0  0
 50 51  2  0  0  0  0
 51 46  1  0  0  0  0
 51 52  1  0  0  0  0
 54 48  1  0  0  0  0
 55 49  1  0  0  0  0
 56 50  1  0  0  0  0
 57 58  1  0  0  0  0
 59 57  1  0  0  0  0
 60 57  1  0  0  0  0
M  END
>  <MODEL>
10

>  <REMARK>
 VINA RESULT:    -8.655      3.134     10.636
 INTER + INTRA:         -12.559
 INTER:                 -11.873
 INTRA:                  -0.686
 UNBOUND:                -0.109
  Name = 
  8 active torsions:
  status: ('A' for Active; 'I' for Inactive)
    1  A    between atoms: C_1  and  C_2
    2  A    between atoms: C_2  and  N_3
    3  A    between atoms: C_2  and  C_28
    4  A    between atoms: N_3  and  C_4
    5  A    between atoms: C_12  and  N_13
    6  A    between atoms: N_16  and  C_17
    7  A    between atoms: C_17  and  C_18
    8  A    between atoms: C_24  and  C_25
                            x       y       z     vdW  Elec       q    Type
                         _______ _______ _______ _____ _____    ______ ____

>  <TORSDO>
F 8

$$$$
=
 OpenBabel07192307433D

 60 63  0  0  1  0  0  0  0  0999 V2000
    4.0980    4.9800   17.0090 C   0  0  0  0  0  0  0  0  0  0  0  0
    3.6470    6.3120   17.1330 C   0  0  0  0  0  0  0  0  0  0  0  0
    2.8450    6.7270   18.2020 C   0  0  0  0  0  0  0  0  0  0  0  0
    2.5240    5.8060   19.1800 C   0  0  0  0  0  0  0  0  0  0  0  0
    3.0000    4.4960   19.1010 C   0  0  0  0  0  0  0  0  0  0  0  0
    3.7910    4.0790   18.0380 C   0  0  0  0  0  0  0  0  0  0  0  0
    2.4870    3.6700   20.2420 C   0  0  0  0  0  0  0  0  0  0  0  0
    2.0380    4.7590   21.2290 C   0  0  0  0  0  0  0  0  0  0  0  0
    1.6350    5.9800   20.3780 C   0  0  1  0  0  0  0  0  0  0  0  0
    3.9130    7.0440   16.3730 H   0  0  0  0  0  0  0  0  0  0  0  0
    2.4820    7.7470   18.2460 H   0  0  0  0  0  0  0  0  0  0  0  0
    4.1390    3.0540   18.0220 H   0  0  0  0  0  0  0  0  0  0  0  0
    3.2610    3.0290   20.6780 H   0  0  0  0  0  0  0  0  0  0  0  0
    1.6390    3.0600   19.9110 H   0  0  0  0  0  0  0  0  0  0  0  0
    2.8810    5.0120   21.8880 H   0  0  0  0  0  0  0  0  0  0  0  0
    1.2210    4.4200   21.8770 H   0  0  0  0  0  0  0  0  0  0  0  0
    0.5820    5.9030   20.0740 H   0  0  0  0  0  0  0  0  0  0  0  0
    1.8650    7.2300   21.0640 N   0  0  0  0  0  0  0  0  0  0  0  0
    0.8070    8.0080   21.4530 C   0  0  0  0  0  0  0  0  0  0  0  0
   -0.3600    7.7700   21.1780 O   0  0  0  0  0  0  0  0  0  0  0  0
    1.2310    9.0930   22.1780 N   0  0  0  0  0  0  0  0  0  0  0  0
    2.6750    7.2590   21.6650 H   0  0  0  0  0  0  0  0  0  0  0  0
    2.1510    9.4150   21.9130 H   0  0  0  0  0  0  0  0  0  0  0  0
    0.2940   10.1350   22.5580 C   0  0  0  0  0  0  0  0  0  0  0  0
    0.6430   10.5770   23.4960 H   0  0  0  0  0  0  0  0  0  0  0  0
   -0.6620    9.6430   22.7770 H   0  0  0  0  0  0  0  0  0  0  0  0
    0.0600   11.1520   21.4670 C   0  0  0  0  0  0  0  0  0  0  0  0
    0.7460   11.0190   20.2430 C   0  0  0  0  0  0  0  0  0  0  0  0
    0.5150   11.9140   19.1950 C   0  0  0  0  0  0  0  0  0  0  0  0
   -0.4100   12.9400   19.3550 C   0  0  0  0  0  0  0  0  0  0  0  0
   -0.6300   13.7900   18.3440 F   0  0  0  0  0  0  0  0  0  0  0  0
   -1.1010   13.0980   20.5450 C   0  0  0  0  0  0  0  0  0  0  0  0
   -0.8550   12.2140   21.6010 C   0  0  0  0  0  0  0  0  0  0  0  0
    1.4650   10.2140   20.1020 H   0  0  0  0  0  0  0  0  0  0  0  0
    1.0480   11.8150   18.2530 H   0  0  0  0  0  0  0  0  0  0  0  0
   -1.8190   13.9090   20.6490 H   0  0  0  0  0  0  0  0  0  0  0  0
   -1.6030   12.4570   22.8470 C   0  0  0  0  0  0  0  0  0  0  0  0
   -1.1120   13.4540   23.6350 N   0  0  0  0  0  0  0  0  0  0  0  0
   -2.6060   11.8130   23.1200 O   0  0  0  0  0  0  0  0  0  0  0  0
   -0.1750   13.8400   23.4880 H   0  0  0  0  0  0  0  0  0  0  0  0
   -1.5240   13.5890   24.5440 H   0  0  0  0  0  0  0  0  0  0  0  0
    4.9140    4.6770   15.9090 N   0  0  0  0  0  0  0  0  0  0  0  0
    5.1170    3.6780   15.8960 H   0  0  0  0  0  0  0  0  0  0  0  0
    6.1150    5.4750   15.6190 C   0  0  1  0  0  0  0  0  0  0  0  0
    5.8320    6.4720   15.2580 H   0  0  0  0  0  0  0  0  0  0  0  0
    6.9180    5.6510   16.8980 C   0  0  0  0  0  0  0  0  0  0  0  0
    7.4000    4.5510   17.6330 C   0  0  0  0  0  0  0  0  0  0  0  0
    8.1330    4.7420   18.8100 C   0  0  0  0  0  0  0  0  0  0  0  0
    8.3930    6.0340   19.2710 C   0  0  0  0  0  0  0  0  0  0  0  0
    7.9280    7.1330   18.5510 C   0  0  0  0  0  0  0  0  0  0  0  0
    7.2040    6.9350   17.3760 C   0  0  0  0  0  0  0  0  0  0  0  0
    6.7880    8.0140   16.6960 F   0  0  0  0  0  0  0  0  0  0  0  0
    7.2030    3.5350   17.2890 H   0  0  0  0  0  0  0  0  0  0  0  0
    8.4960    3.8830   19.3690 H   0  0  0  0  0  0  0  0  0  0  0  0
    8.9640    6.1820   20.1870 H   0  0  0  0  0  0  0  0  0  0  0  0
    8.1250    8.1440   18.8930 H   0  0  0  0  0  0  0  0  0  0  0  0
    6.9610    4.7730   14.5520 C   0  0  0  0  0  0  0  0  0  0  0  0
    6.8330    3.6870   14.6000 H   0  0  0  0  0  0  0  0  0  0  0  0
    6.6910    5.0970   13.5410 H   0  0  0  0  0  0  0  0  0  0  0  0
    8.0270    4.9910   14.6830 H   0  0  0  0  0  0  0  0  0  0  0  0
  1  2  2  0  0  0  0
  1  6  1  0  0  0  0
  2  3  1  0  0  0  0
  3 11  1  0  0  0  0
  3  4  2  0  0  0  0
  4  9  1  0  0  0  0
  5  4  1  0  0  0  0
  5  7  1  0  0  0  0
  6  5  2  0  0  0  0
  7 13  1  0  0  0  0
  7  8  1  0  0  0  0
  8 16  1  0  0  0  0
  8 15  1  0  0  0  0
  9 17  1  6  0  0  0
  9 18  1  0  0  0  0
  9  8  1  0  0  0  0
 10  2  1  0  0  0  0
 12  6  1  0  0  0  0
 14  7  1  0  0  0  0
 18 19  1  0  0  0  0
 18 22  1  0  0  0  0
 19 21  1  0  0  0  0
 20 19  2  0  0  0  0
 21 24  1  0  0  0  0
 23 21  1  0  0  0  0
 24 26  1  0  0  0  0
 24 25  1  0  0  0  0
 27 33  1  0  0  0  0
 27 24  1  0  0  0  0
 28 27  2  0  0  0  0
 29 30  2  0  0  0  0
 29 28  1  0  0  0  0
 30 32  1  0  0  0  0
 31 30  1  0  0  0  0
 32 36  1  0  0  0  0
 32 33  2  0  0  0  0
 33 37  1  0  0  0  0
 34 28  1  0  0  0  0
 35 29  1  0  0  0  0
 37 39  2  0  0  0  0
 37 38  1  0  0  0  0
 38 41  1  0  0  0  0
 40 38  1  0  0  0  0
 42  1  1  0  0  0  0
 43 42  1  0  0  0  0
 44 45  1  6  0  0  0
 44 42  1  0  0  0  0
 44 46  1  0  0  0  0
 46 51  2  0  0  0  0
 46 47  1  0  0  0  0
 47 48  2  0  0  0  0
 48 49  1  0  0  0  0
 48 54  1  0  0  0  0
 49 55  1  0  0  0  0
 50 56  1  0  0  0  0
 50 49  2  0  0  0  0
 51 50  1  0  0  0  0
 52 51  1  0  0  0  0
 53 47  1  0  0  0  0
 57 58  1  0  0  0  0
 57 60  1  0  0  0  0
 57 44  1  0  0  0  0
 59 57  1  0  0  0  0
M  END
>  <MODEL>
11

>  <REMARK>
 VINA RESULT:    -8.592      3.237      9.878
 INTER + INTRA:         -12.468
 INTER:                 -11.330
 INTRA:                  -1.138
 UNBOUND:                -0.109
  Name = 
  8 active torsions:
  status: ('A' for Active; 'I' for Inactive)
    1  A    between atoms: C_1  and  C_2
    2  A    between atoms: C_2  and  N_3
    3  A    between atoms: C_2  and  C_28
    4  A    between atoms: N_3  and  C_4
    5  A    between atoms: C_12  and  N_13
    6  A    between atoms: N_16  and  C_17
    7  A    between atoms: C_17  and  C_18
    8  A    between atoms: C_24  and  C_25
                            x       y       z     vdW  Elec       q    Type
                         _______ _______ _______ _____ _____    ______ ____

>  <TORSDO>
F 8

$$$$
=
 OpenBabel07192307433D

 60 63  0  0  1  0  0  0  0  0999 V2000
    2.3620    7.7170   18.8110 C   0  0  0  0  0  0  0  0  0  0  0  0
    1.9320    8.6570   17.8500 C   0  0  0  0  0  0  0  0  0  0  0  0
    0.9720    9.6320   18.1430 C   0  0  0  0  0  0  0  0  0  0  0  0
    0.4670    9.6930   19.4280 C   0  0  0  0  0  0  0  0  0  0  0  0
    0.9160    8.8040   20.4060 C   0  0  0  0  0  0  0  0  0  0  0  0
    1.8630    7.8300   20.1160 C   0  0  0  0  0  0  0  0  0  0  0  0
    0.1970    9.0270   21.7030 C   0  0  0  0  0  0  0  0  0  0  0  0
   -0.3830   10.4350   21.4910 C   0  0  0  0  0  0  0  0  0  0  0  0
   -0.6060   10.5920   19.9730 C   0  0  1  0  0  0  0  0  0  0  0  0
    2.3410    8.6220   16.8420 H   0  0  0  0  0  0  0  0  0  0  0  0
    0.6340   10.3130   17.3710 H   0  0  0  0  0  0  0  0  0  0  0  0
    2.1820    7.1650   20.9080 H   0  0  0  0  0  0  0  0  0  0  0  0
    0.8690    8.9970   22.5670 H   0  0  0  0  0  0  0  0  0  0  0  0
   -0.5990    8.2840   21.8220 H   0  0  0  0  0  0  0  0  0  0  0  0
    0.3440   11.1770   21.8510 H   0  0  0  0  0  0  0  0  0  0  0  0
   -1.3050   10.5930   22.0610 H   0  0  0  0  0  0  0  0  0  0  0  0
   -1.5940   10.2050   19.6900 H   0  0  0  0  0  0  0  0  0  0  0  0
   -0.4610   11.9600   19.5340 N   0  0  0  0  0  0  0  0  0  0  0  0
    0.5050   12.7610   20.0830 C   0  0  0  0  0  0  0  0  0  0  0  0
    1.2250   12.4320   21.0140 O   0  0  0  0  0  0  0  0  0  0  0  0
    0.5480   13.9830   19.4600 N   0  0  0  0  0  0  0  0  0  0  0  0
   -0.6790   12.1370   18.5650 H   0  0  0  0  0  0  0  0  0  0  0  0
   -0.3490   14.2790   19.1000 H   0  0  0  0  0  0  0  0  0  0  0  0
    1.3900   15.0450   19.9800 C   0  0  0  0  0  0  0  0  0  0  0  0
    1.3830   14.9770   21.0720 H   0  0  0  0  0  0  0  0  0  0  0  0
    0.9070   15.9940   19.7200 H   0  0  0  0  0  0  0  0  0  0  0  0
    2.7790   15.0460   19.3880 C   0  0  0  0  0  0  0  0  0  0  0  0
    2.9360   15.2110   17.9970 C   0  0  0  0  0  0  0  0  0  0  0  0
    4.2090   15.2670   17.4250 C   0  0  0  0  0  0  0  0  0  0  0  0
    5.3350   15.1710   18.2350 C   0  0  0  0  0  0  0  0  0  0  0  0
    6.5520   15.2310   17.6790 F   0  0  0  0  0  0  0  0  0  0  0  0
    5.2160   15.0090   19.6060 C   0  0  0  0  0  0  0  0  0  0  0  0
    3.9410   14.9330   20.1770 C   0  0  0  0  0  0  0  0  0  0  0  0
    2.0620   15.2970   17.3540 H   0  0  0  0  0  0  0  0  0  0  0  0
    4.3300   15.3880   16.3520 H   0  0  0  0  0  0  0  0  0  0  0  0
    6.1100   14.9340   20.2200 H   0  0  0  0  0  0  0  0  0  0  0  0
    3.8870   14.7310   21.6350 C   0  0  0  0  0  0  0  0  0  0  0  0
    4.8770   13.9510   22.1510 N   0  0  0  0  0  0  0  0  0  0  0  0
    3.0190   15.2590   22.3170 O   0  0  0  0  0  0  0  0  0  0  0  0
    5.4660   13.3670   21.5510 H   0  0  0  0  0  0  0  0  0  0  0  0
    4.8250   13.6970   23.1250 H   0  0  0  0  0  0  0  0  0  0  0  0
    3.3430    6.7950   18.4160 N   0  0  0  0  0  0  0  0  0  0  0  0
    3.1280    6.4430   17.4830 H   0  0  0  0  0  0  0  0  0  0  0  0
    3.7670    5.7130   19.3170 C   0  0  1  0  0  0  0  0  0  0  0  0
    3.6710    6.0300   20.3630 H   0  0  0  0  0  0  0  0  0  0  0  0
    2.8660    4.5070   19.1080 C   0  0  0  0  0  0  0  0  0  0  0  0
    2.8860    3.7600   17.9150 C   0  0  0  0  0  0  0  0  0  0  0  0
    2.0420    2.6570   17.7480 C   0  0  0  0  0  0  0  0  0  0  0  0
    1.1650    2.2830   18.7680 C   0  0  0  0  0  0  0  0  0  0  0  0
    1.1390    3.0100   19.9570 C   0  0  0  0  0  0  0  0  0  0  0  0
    1.9860    4.1050   20.1190 C   0  0  0  0  0  0  0  0  0  0  0  0
    1.9510    4.7690   21.2840 F   0  0  0  0  0  0  0  0  0  0  0  0
    3.5630    4.0390   17.1060 H   0  0  0  0  0  0  0  0  0  0  0  0
    2.0650    2.0900   16.8180 H   0  0  0  0  0  0  0  0  0  0  0  0
    0.5090    1.4240   18.6370 H   0  0  0  0  0  0  0  0  0  0  0  0
    0.4660    2.7320   20.7630 H   0  0  0  0  0  0  0  0  0  0  0  0
    5.2270    5.3430   19.0350 C   0  0  0  0  0  0  0  0  0  0  0  0
    5.9100    6.0980   19.4400 H   0  0  0  0  0  0  0  0  0  0  0  0
    5.4950    4.3780   19.4770 H   0  0  0  0  0  0  0  0  0  0  0  0
    5.4160    5.2650   17.9590 H   0  0  0  0  0  0  0  0  0  0  0  0
  1  6  1  0  0  0  0
  2  3  1  0  0  0  0
  2  1  2  0  0  0  0
  3  4  2  0  0  0  0
  4  9  1  0  0  0  0
  4  5  1  0  0  0  0
  5  7  1  0  0  0  0
  6  5  2  0  0  0  0
  6 12  1  0  0  0  0
  7 14  1  0  0  0  0
  7 13  1  0  0  0  0
  8  7  1  0  0  0  0
  8 15  1  0  0  0  0
  8 16  1  0  0  0  0
  9 17  1  6  0  0  0
  9  8  1  0  0  0  0
 10  2  1  0  0  0  0
 11  3  1  0  0  0  0
 18  9  1  0  0  0  0
 18 19  1  0  0  0  0
 19 20  2  0  0  0  0
 21 24  1  0  0  0  0
 21 19  1  0  0  0  0
 22 18  1  0  0  0  0
 23 21  1  0  0  0  0
 24 25  1  0  0  0  0
 26 24  1  0  0  0  0
 27 24  1  0  0  0  0
 27 33  1  0  0  0  0
 28 27  2  0  0  0  0
 29 28  1  0  0  0  0
 29 30  2  0  0  0  0
 30 32  1  0  0  0  0
 31 30  1  0  0  0  0
 32 33  2  0  0  0  0
 32 36  1  0  0  0  0
 33 37  1  0  0  0  0
 34 28  1  0  0  0  0
 35 29  1  0  0  0  0
 37 38  1  0  0  0  0
 37 39  2  0  0  0  0
 38 41  1  0  0  0  0
 40 38  1  0  0  0  0
 42  1  1  0  0  0  0
 42 44  1  0  0  0  0
 43 42  1  0  0  0  0
 44 45  1  1  0  0  0
 46 44  1  0  0  0  0
 46 51  1  0  0  0  0
 47 46  2  0  0  0  0
 48 47  1  0  0  0  0
 48 49  2  0  0  0  0
 49 50  1  0  0  0  0
 50 51  2  0  0  0  0
 50 56  1  0  0  0  0
 51 52  1  0  0  0  0
 53 47  1  0  0  0  0
 54 48  1  0  0  0  0
 55 49  1  0  0  0  0
 57 44  1  0  0  0  0
 57 58  1  0  0  0  0
 57 59  1  0  0  0  0
 60 57  1  0  0  0  0
M  END
>  <MODEL>
12

>  <REMARK>
 VINA RESULT:    -8.549      4.390      8.981
 INTER + INTRA:         -12.406
 INTER:                 -11.924
 INTRA:                  -0.482
 UNBOUND:                -0.109
  Name = 
  8 active torsions:
  status: ('A' for Active; 'I' for Inactive)
    1  A    between atoms: C_1  and  C_2
    2  A    between atoms: C_2  and  N_3
    3  A    between atoms: C_2  and  C_28
    4  A    between atoms: N_3  and  C_4
    5  A    between atoms: C_12  and  N_13
    6  A    between atoms: N_16  and  C_17
    7  A    between atoms: C_17  and  C_18
    8  A    between atoms: C_24  and  C_25
                            x       y       z     vdW  Elec       q    Type
                         _______ _______ _______ _____ _____    ______ ____

>  <TORSDO>
F 8

$$$$
=
 OpenBabel07192307433D

 60 63  0  0  1  0  0  0  0  0999 V2000
    2.0000    6.1090   20.7530 C   0  0  0  0  0  0  0  0  0  0  0  0
    1.2510    7.1110   21.4070 C   0  0  0  0  0  0  0  0  0  0  0  0
    1.0530    8.3760   20.8430 C   0  0  0  0  0  0  0  0  0  0  0  0
    1.5770    8.6270   19.5890 C   0  0  0  0  0  0  0  0  0  0  0  0
    2.2790    7.6330   18.9050 C   0  0  0  0  0  0  0  0  0  0  0  0
    2.4840    6.3780   19.4660 C   0  0  0  0  0  0  0  0  0  0  0  0
    2.7910    8.1460   17.5930 C   0  0  0  0  0  0  0  0  0  0  0  0
    1.9210    9.3970   17.3940 C   0  0  0  0  0  0  0  0  0  0  0  0
    1.5610    9.9080   18.8040 C   0  0  1  0  0  0  0  0  0  0  0  0
    0.8220    6.9100   22.3870 H   0  0  0  0  0  0  0  0  0  0  0  0
    0.5070    9.1360   21.3890 H   0  0  0  0  0  0  0  0  0  0  0  0
    3.0320    5.6400   18.8960 H   0  0  0  0  0  0  0  0  0  0  0  0
    2.6520    7.4280   16.7780 H   0  0  0  0  0  0  0  0  0  0  0  0
    3.8510    8.4100   17.6820 H   0  0  0  0  0  0  0  0  0  0  0  0
    1.0110    9.1150   16.8450 H   0  0  0  0  0  0  0  0  0  0  0  0
    2.4270   10.1630   16.7950 H   0  0  0  0  0  0  0  0  0  0  0  0
    2.3430   10.5820   19.1780 H   0  0  0  0  0  0  0  0  0  0  0  0
    0.2760   10.5660   18.8400 N   0  0  0  0  0  0  0  0  0  0  0  0
    0.1210   11.7360   19.5350 C   0  0  0  0  0  0  0  0  0  0  0  0
    0.9880   12.2440   20.2300 O   0  0  0  0  0  0  0  0  0  0  0  0
   -1.1380   12.2530   19.3590 N   0  0  0  0  0  0  0  0  0  0  0  0
   -0.2910   10.4690   18.0120 H   0  0  0  0  0  0  0  0  0  0  0  0
   -1.8420   11.5450   19.2050 H   0  0  0  0  0  0  0  0  0  0  0  0
   -1.5740   13.4060   20.1270 C   0  0  0  0  0  0  0  0  0  0  0  0
   -2.0790   14.0950   19.4430 H   0  0  0  0  0  0  0  0  0  0  0  0
   -0.6700   13.9170   20.4790 H   0  0  0  0  0  0  0  0  0  0  0  0
   -2.4060   13.0380   21.3310 C   0  0  0  0  0  0  0  0  0  0  0  0
   -1.7830   12.9110   22.5880 C   0  0  0  0  0  0  0  0  0  0  0  0
   -2.5330   12.6200   23.7300 C   0  0  0  0  0  0  0  0  0  0  0  0
   -3.9110   12.4660   23.6310 C   0  0  0  0  0  0  0  0  0  0  0  0
   -4.6230   12.1930   24.7310 F   0  0  0  0  0  0  0  0  0  0  0  0
   -4.5560   12.5850   22.4100 C   0  0  0  0  0  0  0  0  0  0  0  0
   -3.8020   12.8560   21.2630 C   0  0  0  0  0  0  0  0  0  0  0  0
   -0.7060   13.0380   22.6800 H   0  0  0  0  0  0  0  0  0  0  0  0
   -2.0510   12.5160   24.6990 H   0  0  0  0  0  0  0  0  0  0  0  0
   -5.6340   12.4590   22.3540 H   0  0  0  0  0  0  0  0  0  0  0  0
   -4.5470   12.9400   19.9950 C   0  0  0  0  0  0  0  0  0  0  0  0
   -5.1470   14.1390   19.7510 N   0  0  0  0  0  0  0  0  0  0  0  0
   -4.5890   11.9950   19.2200 O   0  0  0  0  0  0  0  0  0  0  0  0
   -5.2650   14.8380   20.4900 H   0  0  0  0  0  0  0  0  0  0  0  0
   -5.7540   14.2140   18.9510 H   0  0  0  0  0  0  0  0  0  0  0  0
    2.1190    4.8700   21.4000 N   0  0  0  0  0  0  0  0  0  0  0  0
    3.1000    4.6810   21.6030 H   0  0  0  0  0  0  0  0  0  0  0  0
    1.4360    3.6770   20.8750 C   0  0  1  0  0  0  0  0  0  0  0  0
    0.4670    3.9540   20.4420 H   0  0  0  0  0  0  0  0  0  0  0  0
    2.2840    3.0620   19.7730 C   0  0  0  0  0  0  0  0  0  0  0  0
    3.6740    2.8860   19.9110 C   0  0  0  0  0  0  0  0  0  0  0  0
    4.4290    2.3210   18.8790 C   0  0  0  0  0  0  0  0  0  0  0  0
    3.8100    1.9240   17.6920 C   0  0  0  0  0  0  0  0  0  0  0  0
    2.4340    2.0860   17.5430 C   0  0  0  0  0  0  0  0  0  0  0  0
    1.6850    2.6450   18.5780 C   0  0  0  0  0  0  0  0  0  0  0  0
    0.3600    2.7680   18.4110 F   0  0  0  0  0  0  0  0  0  0  0  0
    4.1750    3.1930   20.8300 H   0  0  0  0  0  0  0  0  0  0  0  0
    5.5040    2.1940   18.9980 H   0  0  0  0  0  0  0  0  0  0  0  0
    4.3990    1.4840   16.8890 H   0  0  0  0  0  0  0  0  0  0  0  0
    1.9340    1.7800   16.6290 H   0  0  0  0  0  0  0  0  0  0  0  0
    1.2150    2.6660   22.0040 C   0  0  0  0  0  0  0  0  0  0  0  0
    1.0250    1.6640   21.6040 H   0  0  0  0  0  0  0  0  0  0  0  0
    2.0830    2.6000   22.6690 H   0  0  0  0  0  0  0  0  0  0  0  0
    0.3570    2.9450   22.6260 H   0  0  0  0  0  0  0  0  0  0  0  0
  1 42  1  0  0  0  0
  1  2  1  0  0  0  0
  2 10  1  0  0  0  0
  3 11  1  0  0  0  0
  3  2  2  0  0  0  0
  4  3  1  0  0  0  0
  5  6  1  0  0  0  0
  5  4  2  0  0  0  0
  6  1  2  0  0  0  0
  7 14  1  0  0  0  0
  7  5  1  0  0  0  0
  8  7  1  0  0  0  0
  8  9  1  0  0  0  0
  9 18  1  0  0  0  0
  9 17  1  1  0  0  0
  9  4  1  0  0  0  0
 12  6  1  0  0  0  0
 13  7  1  0  0  0  0
 15  8  1  0  0  0  0
 16  8  1  0  0  0  0
 18 19  1  0  0  0  0
 19 20  2  0  0  0  0
 21 19  1  0  0  0  0
 21 24  1  0  0  0  0
 22 18  1  0  0  0  0
 23 21  1  0  0  0  0
 24 26  1  0  0  0  0
 24 27  1  0  0  0  0
 25 24  1  0  0  0  0
 27 28  1  0  0  0  0
 28 34  1  0  0  0  0
 28 29  2  0  0  0  0
 29 35  1  0  0  0  0
 30 29  1  0  0  0  0
 30 31  1  0  0  0  0
 32 30  2  0  0  0  0
 33 27  2  0  0  0  0
 33 32  1  0  0  0  0
 36 32  1  0  0  0  0
 37 33  1  0  0  0  0
 38 37  1  0  0  0  0
 38 40  1  0  0  0  0
 39 37  2  0  0  0  0
 41 38  1  0  0  0  0
 42 43  1  0  0  0  0
 44 45  1  6  0  0  0
 44 42  1  0  0  0  0
 44 57  1  0  0  0  0
 46 47  1  0  0  0  0
 46 44  1  0  0  0  0
 47 53  1  0  0  0  0
 48 54  1  0  0  0  0
 48 47  2  0  0  0  0
 49 48  1  0  0  0  0
 50 49  2  0  0  0  0
 50 51  1  0  0  0  0
 51 46  2  0  0  0  0
 52 51  1  0  0  0  0
 55 49  1  0  0  0  0
 56 50  1  0  0  0  0
 57 60  1  0  0  0  0
 57 59  1  0  0  0  0
 58 57  1  0  0  0  0
M  END
>  <MODEL>
13

>  <REMARK>
 VINA RESULT:    -8.502      4.424     10.905
 INTER + INTRA:         -12.339
 INTER:                 -10.892
 INTRA:                  -1.447
 UNBOUND:                -0.109
  Name = 
  8 active torsions:
  status: ('A' for Active; 'I' for Inactive)
    1  A    between atoms: C_1  and  C_2
    2  A    between atoms: C_2  and  N_3
    3  A    between atoms: C_2  and  C_28
    4  A    between atoms: N_3  and  C_4
    5  A    between atoms: C_12  and  N_13
    6  A    between atoms: N_16  and  C_17
    7  A    between atoms: C_17  and  C_18
    8  A    between atoms: C_24  and  C_25
                            x       y       z     vdW  Elec       q    Type
                         _______ _______ _______ _____ _____    ______ ____

>  <TORSDO>
F 8

$$$$
=
 OpenBabel07192307433D

 60 63  0  0  1  0  0  0  0  0999 V2000
    4.1010    5.1480   17.1920 C   0  0  0  0  0  0  0  0  0  0  0  0
    3.7900    6.5240   17.1590 C   0  0  0  0  0  0  0  0  0  0  0  0
    2.9360    7.1140   18.0970 C   0  0  0  0  0  0  0  0  0  0  0  0
    2.4190    6.3240   19.1060 C   0  0  0  0  0  0  0  0  0  0  0  0
    2.7540    4.9710   19.1850 C   0  0  0  0  0  0  0  0  0  0  0  0
    3.5960    4.3800   18.2500 C   0  0  0  0  0  0  0  0  0  0  0  0
    2.0420    4.3090   20.3260 C   0  0  0  0  0  0  0  0  0  0  0  0
    1.6200    5.5230   21.1680 C   0  0  0  0  0  0  0  0  0  0  0  0
    1.4400    6.6960   20.1820 C   0  0  1  0  0  0  0  0  0  0  0  0
    4.2090    7.1530   16.3760 H   0  0  0  0  0  0  0  0  0  0  0  0
    2.6860    8.1660   18.0200 H   0  0  0  0  0  0  0  0  0  0  0  0
    3.8290    3.3280   18.3550 H   0  0  0  0  0  0  0  0  0  0  0  0
    2.6930    3.6350   20.8930 H   0  0  0  0  0  0  0  0  0  0  0  0
    1.1690    3.7600   19.9550 H   0  0  0  0  0  0  0  0  0  0  0  0
    2.4160    5.7490   21.8920 H   0  0  0  0  0  0  0  0  0  0  0  0
    0.7100    5.3300   21.7480 H   0  0  0  0  0  0  0  0  0  0  0  0
    0.4210    6.6990   19.7730 H   0  0  0  0  0  0  0  0  0  0  0  0
    1.7380    7.9730   20.7870 N   0  0  0  0  0  0  0  0  0  0  0  0
    0.8110    8.9810   20.7590 C   0  0  0  0  0  0  0  0  0  0  0  0
   -0.2550    8.9210   20.1630 O   0  0  0  0  0  0  0  0  0  0  0  0
    1.2420   10.0700   21.4740 N   0  0  0  0  0  0  0  0  0  0  0  0
    2.3330    7.9470   21.6010 H   0  0  0  0  0  0  0  0  0  0  0  0
    2.2470   10.1750   21.4750 H   0  0  0  0  0  0  0  0  0  0  0  0
    0.4880   11.3110   21.4510 C   0  0  0  0  0  0  0  0  0  0  0  0
    0.4220   11.6850   22.4770 H   0  0  0  0  0  0  0  0  0  0  0  0
   -0.5330   11.0610   21.1400 H   0  0  0  0  0  0  0  0  0  0  0  0
    1.0420   12.3240   20.4780 C   0  0  0  0  0  0  0  0  0  0  0  0
    2.2200   13.0240   20.8070 C   0  0  0  0  0  0  0  0  0  0  0  0
    2.7850   13.9320   19.9070 C   0  0  0  0  0  0  0  0  0  0  0  0
    2.1880   14.1390   18.6680 C   0  0  0  0  0  0  0  0  0  0  0  0
    2.7390   15.0050   17.8090 F   0  0  0  0  0  0  0  0  0  0  0  0
    1.0290   13.4660   18.3130 C   0  0  0  0  0  0  0  0  0  0  0  0
    0.4530   12.5720   19.2230 C   0  0  0  0  0  0  0  0  0  0  0  0
    2.7010   12.8640   21.7690 H   0  0  0  0  0  0  0  0  0  0  0  0
    3.6900   14.4760   20.1630 H   0  0  0  0  0  0  0  0  0  0  0  0
    0.5780   13.6440   17.3400 H   0  0  0  0  0  0  0  0  0  0  0  0
   -0.7930   11.9130   18.7920 C   0  0  0  0  0  0  0  0  0  0  0  0
   -0.6300   10.8490   17.9580 N   0  0  0  0  0  0  0  0  0  0  0  0
   -1.8840   12.2990   19.1890 O   0  0  0  0  0  0  0  0  0  0  0  0
    0.2620   10.6690   17.4880 H   0  0  0  0  0  0  0  0  0  0  0  0
   -1.4520   10.4310   17.5530 H   0  0  0  0  0  0  0  0  0  0  0  0
    4.9840    4.6640   16.2150 N   0  0  0  0  0  0  0  0  0  0  0  0
    5.3560    3.7600   16.5050 H   0  0  0  0  0  0  0  0  0  0  0  0
    6.0370    5.5270   15.6570 C   0  0  1  0  0  0  0  0  0  0  0  0
    5.5900    6.3500   15.0850 H   0  0  0  0  0  0  0  0  0  0  0  0
    6.8430    6.1310   16.7960 C   0  0  0  0  0  0  0  0  0  0  0  0
    7.1540    7.5040   16.8440 C   0  0  0  0  0  0  0  0  0  0  0  0
    7.9010    8.0320   17.9020 C   0  0  0  0  0  0  0  0  0  0  0  0
    8.3510    7.1980   18.9270 C   0  0  0  0  0  0  0  0  0  0  0  0
    8.0450    5.8390   18.8970 C   0  0  0  0  0  0  0  0  0  0  0  0
    7.2950    5.3200   17.8430 C   0  0  0  0  0  0  0  0  0  0  0  0
    7.0010    4.0110   17.8540 F   0  0  0  0  0  0  0  0  0  0  0  0
    6.8130    8.1700   16.0490 H   0  0  0  0  0  0  0  0  0  0  0  0
    8.1370    9.0940   17.9240 H   0  0  0  0  0  0  0  0  0  0  0  0
    8.9320    7.6100   19.7510 H   0  0  0  0  0  0  0  0  0  0  0  0
    8.3840    5.1760   19.6880 H   0  0  0  0  0  0  0  0  0  0  0  0
    6.9470    4.7080   14.7360 C   0  0  0  0  0  0  0  0  0  0  0  0
    7.6380    5.3570   14.1870 H   0  0  0  0  0  0  0  0  0  0  0  0
    7.5460    3.9820   15.2970 H   0  0  0  0  0  0  0  0  0  0  0  0
    6.3640    4.1430   14.0020 H   0  0  0  0  0  0  0  0  0  0  0  0
  1  6  1  0  0  0  0
  2  1  2  0  0  0  0
  2  3  1  0  0  0  0
  3  4  2  0  0  0  0
  4  5  1  0  0  0  0
  4  9  1  0  0  0  0
  5  7  1  0  0  0  0
  6 12  1  0  0  0  0
  6  5  2  0  0  0  0
  7 13  1  0  0  0  0
  7  8  1  0  0  0  0
  8 16  1  0  0  0  0
  8 15  1  0  0  0  0
  9 17  1  6  0  0  0
  9 18  1  0  0  0  0
  9  8  1  0  0  0  0
 10  2  1  0  0  0  0
 11  3  1  0  0  0  0
 14  7  1  0  0  0  0
 18 22  1  0  0  0  0
 19 18  1  0  0  0  0
 19 21  1  0  0  0  0
 20 19  2  0  0  0  0
 21 23  1  0  0  0  0
 24 21  1  0  0  0  0
 24 25  1  0  0  0  0
 26 24  1  0  0  0  0
 27 28  1  0  0  0  0
 27 24  1  0  0  0  0
 28 34  1  0  0  0  0
 29 35  1  0  0  0  0
 29 28  2  0  0  0  0
 30 29  1  0  0  0  0
 31 30  1  0  0  0  0
 32 30  2  0  0  0  0
 32 33  1  0  0  0  0
 33 27  2  0  0  0  0
 36 32  1  0  0  0  0
 37 39  2  0  0  0  0
 37 33  1  0  0  0  0
 38 37  1  0  0  0  0
 40 38  1  0  0  0  0
 41 38  1  0  0  0  0
 42 43  1  0  0  0  0
 42  1  1  0  0  0  0
 44 45  1  6  0  0  0
 44 42  1  0  0  0  0
 44 46  1  0  0  0  0
 46 47  2  0  0  0  0
 46 51  1  0  0  0  0
 47 48  1  0  0  0  0
 48 54  1  0  0  0  0
 48 49  2  0  0  0  0
 49 55  1  0  0  0  0
 50 49  1  0  0  0  0
 50 56  1  0  0  0  0
 51 52  1  0  0  0  0
 51 50  2  0  0  0  0
 53 47  1  0  0  0  0
 57 59  1  0  0  0  0
 57 44  1  0  0  0  0
 58 57  1  0  0  0  0
 60 57  1  0  0  0  0
M  END
>  <MODEL>
14

>  <REMARK>
 VINA RESULT:    -8.476      3.223      9.401
 INTER + INTRA:         -12.301
 INTER:                 -11.186
 INTRA:                  -1.115
 UNBOUND:                -0.109
  Name = 
  8 active torsions:
  status: ('A' for Active; 'I' for Inactive)
    1  A    between atoms: C_1  and  C_2
    2  A    between atoms: C_2  and  N_3
    3  A    between atoms: C_2  and  C_28
    4  A    between atoms: N_3  and  C_4
    5  A    between atoms: C_12  and  N_13
    6  A    between atoms: N_16  and  C_17
    7  A    between atoms: C_17  and  C_18
    8  A    between atoms: C_24  and  C_25
                            x       y       z     vdW  Elec       q    Type
                         _______ _______ _______ _____ _____    ______ ____

>  <TORSDO>
F 8

$$$$
=
 OpenBabel07192307433D

 60 63  0  0  1  0  0  0  0  0999 V2000
    2.5760    4.9470   18.6970 C   0  0  0  0  0  0  0  0  0  0  0  0
    2.1690    5.1880   20.0270 C   0  0  0  0  0  0  0  0  0  0  0  0
    1.8360    6.4690   20.4800 C   0  0  0  0  0  0  0  0  0  0  0  0
    1.8720    7.5170   19.5800 C   0  0  0  0  0  0  0  0  0  0  0  0
    2.2250    7.2910   18.2480 C   0  0  0  0  0  0  0  0  0  0  0  0
    2.5630    6.0210   17.7960 C   0  0  0  0  0  0  0  0  0  0  0  0
    2.2400    8.5740   17.4730 C   0  0  0  0  0  0  0  0  0  0  0  0
    1.4170    9.4940   18.3900 C   0  0  0  0  0  0  0  0  0  0  0  0
    1.6280    8.9780   19.8280 C   0  0  1  0  0  0  0  0  0  0  0  0
    2.1230    4.3620   20.7340 H   0  0  0  0  0  0  0  0  0  0  0  0
    1.5670    6.6260   21.5180 H   0  0  0  0  0  0  0  0  0  0  0  0
    2.8260    5.8960   16.7540 H   0  0  0  0  0  0  0  0  0  0  0  0
    1.7760    8.4750   16.4860 H   0  0  0  0  0  0  0  0  0  0  0  0
    3.2680    8.9360   17.3690 H   0  0  0  0  0  0  0  0  0  0  0  0
    0.3570    9.4220   18.1080 H   0  0  0  0  0  0  0  0  0  0  0  0
    1.7020   10.5470   18.2850 H   0  0  0  0  0  0  0  0  0  0  0  0
    2.5230    9.4340   20.2710 H   0  0  0  0  0  0  0  0  0  0  0  0
    0.4790    9.2130   20.6710 N   0  0  0  0  0  0  0  0  0  0  0  0
    0.4300   10.3220   21.4740 C   0  0  0  0  0  0  0  0  0  0  0  0
    1.3500   11.1150   21.6110 O   0  0  0  0  0  0  0  0  0  0  0  0
   -0.7820   10.4180   22.1110 N   0  0  0  0  0  0  0  0  0  0  0  0
   -0.4060    8.8950   20.3080 H   0  0  0  0  0  0  0  0  0  0  0  0
   -1.2070    9.5210   22.2960 H   0  0  0  0  0  0  0  0  0  0  0  0
   -0.9990   11.4300   23.1300 C   0  0  0  0  0  0  0  0  0  0  0  0
   -0.0360   11.9020   23.3480 H   0  0  0  0  0  0  0  0  0  0  0  0
   -1.3060   10.9060   24.0430 H   0  0  0  0  0  0  0  0  0  0  0  0
   -2.0810   12.4170   22.7660 C   0  0  0  0  0  0  0  0  0  0  0  0
   -3.3950   12.2010   23.2280 C   0  0  0  0  0  0  0  0  0  0  0  0
   -4.4090   13.1210   22.9500 C   0  0  0  0  0  0  0  0  0  0  0  0
   -4.1200   14.2690   22.2220 C   0  0  0  0  0  0  0  0  0  0  0  0
   -5.0960   15.1490   21.9650 F   0  0  0  0  0  0  0  0  0  0  0  0
   -2.8380   14.5130   21.7540 C   0  0  0  0  0  0  0  0  0  0  0  0
   -1.8270   13.5810   22.0140 C   0  0  0  0  0  0  0  0  0  0  0  0
   -3.6330   11.3100   23.8070 H   0  0  0  0  0  0  0  0  0  0  0  0
   -5.4240   12.9510   23.3010 H   0  0  0  0  0  0  0  0  0  0  0  0
   -2.6330   15.4160   21.1850 H   0  0  0  0  0  0  0  0  0  0  0  0
   -0.4960   13.8880   21.4630 C   0  0  0  0  0  0  0  0  0  0  0  0
   -0.2980   13.5040   20.1710 N   0  0  0  0  0  0  0  0  0  0  0  0
    0.3480   14.4710   22.1300 O   0  0  0  0  0  0  0  0  0  0  0  0
   -0.9350   12.8530   19.7040 H   0  0  0  0  0  0  0  0  0  0  0  0
    0.6270   13.5960   19.7830 H   0  0  0  0  0  0  0  0  0  0  0  0
    2.8670    3.6210   18.3430 N   0  0  0  0  0  0  0  0  0  0  0  0
    2.1500    3.0010   18.7180 H   0  0  0  0  0  0  0  0  0  0  0  0
    4.2160    3.0680   18.5380 C   0  0  1  0  0  0  0  0  0  0  0  0
    4.3860    2.2300   17.8510 H   0  0  0  0  0  0  0  0  0  0  0  0
    5.2460    4.1430   18.2300 C   0  0  0  0  0  0  0  0  0  0  0  0
    5.8650    4.8950   19.2460 C   0  0  0  0  0  0  0  0  0  0  0  0
    6.8070    5.8820   18.9340 C   0  0  0  0  0  0  0  0  0  0  0  0
    7.1420    6.1340   17.6020 C   0  0  0  0  0  0  0  0  0  0  0  0
    6.5420    5.3930   16.5860 C   0  0  0  0  0  0  0  0  0  0  0  0
    5.6090    4.4080   16.9050 C   0  0  0  0  0  0  0  0  0  0  0  0
    5.0650    3.6990   15.9040 F   0  0  0  0  0  0  0  0  0  0  0  0
    5.6130    4.7130   20.2920 H   0  0  0  0  0  0  0  0  0  0  0  0
    7.2750    6.4580   19.7300 H   0  0  0  0  0  0  0  0  0  0  0  0
    7.8750    6.9020   17.3600 H   0  0  0  0  0  0  0  0  0  0  0  0
    6.7930    5.5730   15.5450 H   0  0  0  0  0  0  0  0  0  0  0  0
    4.3730    2.5780   19.9810 C   0  0  0  0  0  0  0  0  0  0  0  0
    3.8620    1.6200   20.1290 H   0  0  0  0  0  0  0  0  0  0  0  0
    5.4250    2.4400   20.2520 H   0  0  0  0  0  0  0  0  0  0  0  0
    3.9510    3.2950   20.6930 H   0  0  0  0  0  0  0  0  0  0  0  0
  1  2  1  0  0  0  0
  2  3  2  0  0  0  0
  2 10  1  0  0  0  0
  3 11  1  0  0  0  0
  4  9  1  0  0  0  0
  4  3  1  0  0  0  0
  5  4  2  0  0  0  0
  6  5  1  0  0  0  0
  6  1  2  0  0  0  0
  7  5  1  0  0  0  0
  7  8  1  0  0  0  0
  8  9  1  0  0  0  0
  9 17  1  1  0  0  0
  9 18  1  0  0  0  0
 12  6  1  0  0  0  0
 13  7  1  0  0  0  0
 14  7  1  0  0  0  0
 15  8  1  0  0  0  0
 16  8  1  0  0  0  0
 18 19  1  0  0  0  0
 19 20  2  0  0  0  0
 19 21  1  0  0  0  0
 21 23  1  0  0  0  0
 21 24  1  0  0  0  0
 22 18  1  0  0  0  0
 24 25  1  0  0  0  0
 24 26  1  0  0  0  0
 27 24  1  0  0  0  0
 27 28  1  0  0  0  0
 28 34  1  0  0  0  0
 29 28  2  0  0  0  0
 29 35  1  0  0  0  0
 30 29  1  0  0  0  0
 31 30  1  0  0  0  0
 32 33  1  0  0  0  0
 32 30  2  0  0  0  0
 33 27  2  0  0  0  0
 36 32  1  0  0  0  0
 37 33  1  0  0  0  0
 37 39  2  0  0  0  0
 38 37  1  0  0  0  0
 40 38  1  0  0  0  0
 41 38  1  0  0  0  0
 42 44  1  0  0  0  0
 42  1  1  0  0  0  0
 42 43  1  0  0  0  0
 44 45  1  6  0  0  0
 44 57  1  0  0  0  0
 46 44  1  0  0  0  0
 46 47  1  0  0  0  0
 47 53  1  0  0  0  0
 48 47  2  0  0  0  0
 48 54  1  0  0  0  0
 49 48  1  0  0  0  0
 50 51  1  0  0  0  0
 50 49  2  0  0  0  0
 51 46  2  0  0  0  0
 52 51  1  0  0  0  0
 55 49  1  0  0  0  0
 56 50  1  0  0  0  0
 57 58  1  0  0  0  0
 57 59  1  0  0  0  0
 57 60  1  0  0  0  0
M  END
>  <MODEL>
15

>  <REMARK>
 VINA RESULT:    -8.462      3.767     10.840
 INTER + INTRA:         -12.282
 INTER:                 -10.778
 INTRA:                  -1.504
 UNBOUND:                -0.109
  Name = 
  8 active torsions:
  status: ('A' for Active; 'I' for Inactive)
    1  A    between atoms: C_1  and  C_2
    2  A    between atoms: C_2  and  N_3
    3  A    between atoms: C_2  and  C_28
    4  A    between atoms: N_3  and  C_4
    5  A    between atoms: C_12  and  N_13
    6  A    between atoms: N_16  and  C_17
    7  A    between atoms: C_17  and  C_18
    8  A    between atoms: C_24  and  C_25
                            x       y       z     vdW  Elec       q    Type
                         _______ _______ _______ _____ _____    ______ ____

>  <TORSDO>
F 8

$$$$
=
 OpenBabel07192307433D

 60 63  0  0  1  0  0  0  0  0999 V2000
    4.3210    6.1020   17.1140 C   0  0  0  0  0  0  0  0  0  0  0  0
    3.8060    7.4120   17.2260 C   0  0  0  0  0  0  0  0  0  0  0  0
    2.8840    7.7640   18.2190 C   0  0  0  0  0  0  0  0  0  0  0  0
    2.5060    6.8030   19.1360 C   0  0  0  0  0  0  0  0  0  0  0  0
    3.0420    5.5150   19.0720 C   0  0  0  0  0  0  0  0  0  0  0  0
    3.9510    5.1600   18.0830 C   0  0  0  0  0  0  0  0  0  0  0  0
    2.4520    4.6370   20.1340 C   0  0  0  0  0  0  0  0  0  0  0  0
    1.8620    5.6780   21.0990 C   0  0  0  0  0  0  0  0  0  0  0  0
    1.4950    6.9070   20.2430 C   0  0  1  0  0  0  0  0  0  0  0  0
    4.1150    8.1760   16.5150 H   0  0  0  0  0  0  0  0  0  0  0  0
    2.4770    8.7680   18.2520 H   0  0  0  0  0  0  0  0  0  0  0  0
    4.3400    4.1510   18.0760 H   0  0  0  0  0  0  0  0  0  0  0  0
    3.2040    4.0130   20.6300 H   0  0  0  0  0  0  0  0  0  0  0  0
    1.6670    4.0050   19.7050 H   0  0  0  0  0  0  0  0  0  0  0  0
    2.6250    5.9440   21.8450 H   0  0  0  0  0  0  0  0  0  0  0  0
    1.0000    5.2890   21.6520 H   0  0  0  0  0  0  0  0  0  0  0  0
    0.4830    6.7990   19.8320 H   0  0  0  0  0  0  0  0  0  0  0  0
    1.6050    8.1440   20.9800 N   0  0  0  0  0  0  0  0  0  0  0  0
    0.7170    9.1620   20.7540 C   0  0  0  0  0  0  0  0  0  0  0  0
   -0.1400    9.1470   19.8820 O   0  0  0  0  0  0  0  0  0  0  0  0
    0.9250   10.2030   21.6240 N   0  0  0  0  0  0  0  0  0  0  0  0
    1.9490    8.0650   21.9250 H   0  0  0  0  0  0  0  0  0  0  0  0
    1.8890   10.2960   21.9110 H   0  0  0  0  0  0  0  0  0  0  0  0
    0.2000   11.4510   21.4640 C   0  0  0  0  0  0  0  0  0  0  0  0
    0.0460   11.8820   22.4580 H   0  0  0  0  0  0  0  0  0  0  0  0
   -0.7920   11.1980   21.0720 H   0  0  0  0  0  0  0  0  0  0  0  0
    0.8610   12.4010   20.4950 C   0  0  0  0  0  0  0  0  0  0  0  0
    2.1030   12.9760   20.8300 C   0  0  0  0  0  0  0  0  0  0  0  0
    2.7640   13.8200   19.9340 C   0  0  0  0  0  0  0  0  0  0  0  0
    2.1980   14.0880   18.6930 C   0  0  0  0  0  0  0  0  0  0  0  0
    2.8410   14.8930   17.8370 F   0  0  0  0  0  0  0  0  0  0  0  0
    0.9780   13.5390   18.3310 C   0  0  0  0  0  0  0  0  0  0  0  0
    0.3070   12.7100   19.2370 C   0  0  0  0  0  0  0  0  0  0  0  0
    2.5600   12.7660   21.7960 H   0  0  0  0  0  0  0  0  0  0  0  0
    3.7190   14.2680   20.1950 H   0  0  0  0  0  0  0  0  0  0  0  0
    0.5530   13.7630   17.3560 H   0  0  0  0  0  0  0  0  0  0  0  0
   -0.9970   12.1830   18.7990 C   0  0  0  0  0  0  0  0  0  0  0  0
   -0.9410   11.1660   17.8950 N   0  0  0  0  0  0  0  0  0  0  0  0
   -2.0440   12.6290   19.2490 O   0  0  0  0  0  0  0  0  0  0  0  0
   -0.0770   10.9460   17.3900 H   0  0  0  0  0  0  0  0  0  0  0  0
   -1.8030   10.8430   17.4860 H   0  0  0  0  0  0  0  0  0  0  0  0
    5.2540    5.8630   16.0940 N   0  0  0  0  0  0  0  0  0  0  0  0
    4.8970    6.2250   15.2100 H   0  0  0  0  0  0  0  0  0  0  0  0
    5.8650    4.5360   15.9270 C   0  0  1  0  0  0  0  0  0  0  0  0
    5.1480    3.7510   16.2000 H   0  0  0  0  0  0  0  0  0  0  0  0
    6.2430    4.3400   14.4680 C   0  0  0  0  0  0  0  0  0  0  0  0
    5.5170    3.4850   13.6170 C   0  0  0  0  0  0  0  0  0  0  0  0
    5.8910    3.3200   12.2800 C   0  0  0  0  0  0  0  0  0  0  0  0
    6.9960    4.0050   11.7710 C   0  0  0  0  0  0  0  0  0  0  0  0
    7.7210    4.8590   12.5990 C   0  0  0  0  0  0  0  0  0  0  0  0
    7.3400    5.0230   13.9300 C   0  0  0  0  0  0  0  0  0  0  0  0
    8.0470    5.8690   14.6950 F   0  0  0  0  0  0  0  0  0  0  0  0
    4.6520    2.9400   13.9990 H   0  0  0  0  0  0  0  0  0  0  0  0
    5.3220    2.6530   11.6340 H   0  0  0  0  0  0  0  0  0  0  0  0
    7.2870    3.8760   10.7290 H   0  0  0  0  0  0  0  0  0  0  0  0
    8.5820    5.4020   12.2200 H   0  0  0  0  0  0  0  0  0  0  0  0
    7.1050    4.4180   16.8200 C   0  0  0  0  0  0  0  0  0  0  0  0
    6.8770    3.8690   17.7400 H   0  0  0  0  0  0  0  0  0  0  0  0
    7.9230    3.8960   16.3130 H   0  0  0  0  0  0  0  0  0  0  0  0
    7.4840    5.4050   17.1060 H   0  0  0  0  0  0  0  0  0  0  0  0
  1  2  2  0  0  0  0
  1  6  1  0  0  0  0
  2  3  1  0  0  0  0
  3 11  1  0  0  0  0
  3  4  2  0  0  0  0
  4  9  1  0  0  0  0
  5  4  1  0  0  0  0
  5  7  1  0  0  0  0
  6  5  2  0  0  0  0
  7 13  1  0  0  0  0
  7  8  1  0  0  0  0
  8 16  1  0  0  0  0
  8 15  1  0  0  0  0
  9 17  1  6  0  0  0
  9 18  1  0  0  0  0
  9  8  1  0  0  0  0
 10  2  1  0  0  0  0
 12  6  1  0  0  0  0
 14  7  1  0  0  0  0
 18 22  1  0  0  0  0
 19 18  1  0  0  0  0
 19 21  1  0  0  0  0
 20 19  2  0  0  0  0
 21 23  1  0  0  0  0
 24 21  1  0  0  0  0
 24 25  1  0  0  0  0
 26 24  1  0  0  0  0
 27 28  1  0  0  0  0
 27 24  1  0  0  0  0
 28 34  1  0  0  0  0
 29 35  1  0  0  0  0
 29 28  2  0  0  0  0
 30 29  1  0  0  0  0
 31 30  1  0  0  0  0
 32 30  2  0  0  0  0
 32 33  1  0  0  0  0
 33 27  2  0  0  0  0
 36 32  1  0  0  0  0
 37 33  1  0  0  0  0
 37 39  2  0  0  0  0
 38 37  1  0  0  0  0
 40 38  1  0  0  0  0
 41 38  1  0  0  0  0
 42  1  1  0  0  0  0
 43 42  1  0  0  0  0
 44 42  1  0  0  0  0
 44 45  1  1  0  0  0
 44 57  1  0  0  0  0
 46 44  1  0  0  0  0
 47 53  1  0  0  0  0
 47 46  2  0  0  0  0
 48 47  1  0  0  0  0
 49 48  2  0  0  0  0
 49 50  1  0  0  0  0
 50 51  2  0  0  0  0
 51 46  1  0  0  0  0
 51 52  1  0  0  0  0
 54 48  1  0  0  0  0
 55 49  1  0  0  0  0
 56 50  1  0  0  0  0
 57 60  1  0  0  0  0
 57 58  1  0  0  0  0
 59 57  1  0  0  0  0
M  END
>  <MODEL>
16

>  <REMARK>
 VINA RESULT:    -8.456      3.009      9.733
 INTER + INTRA:         -12.272
 INTER:                 -11.190
 INTRA:                  -1.082
 UNBOUND:                -0.109
  Name = 
  8 active torsions:
  status: ('A' for Active; 'I' for Inactive)
    1  A    between atoms: C_1  and  C_2
    2  A    between atoms: C_2  and  N_3
    3  A    between atoms: C_2  and  C_28
    4  A    between atoms: N_3  and  C_4
    5  A    between atoms: C_12  and  N_13
    6  A    between atoms: N_16  and  C_17
    7  A    between atoms: C_17  and  C_18
    8  A    between atoms: C_24  and  C_25
                            x       y       z     vdW  Elec       q    Type
                         _______ _______ _______ _____ _____    ______ ____

>  <TORSDO>
F 8

$$$$
=
 OpenBabel07192307433D

 60 63  0  0  1  0  0  0  0  0999 V2000
    2.5190    6.6980   19.0120 C   0  0  0  0  0  0  0  0  0  0  0  0
    2.4660    7.4800   17.8380 C   0  0  0  0  0  0  0  0  0  0  0  0
    1.8640    8.7430   17.8150 C   0  0  0  0  0  0  0  0  0  0  0  0
    1.3460    9.2480   18.9920 C   0  0  0  0  0  0  0  0  0  0  0  0
    1.4330    8.5110   20.1740 C   0  0  0  0  0  0  0  0  0  0  0  0
    2.0230    7.2530   20.2000 C   0  0  0  0  0  0  0  0  0  0  0  0
    0.7650    9.2340   21.3050 C   0  0  0  0  0  0  0  0  0  0  0  0
    0.6870   10.6640   20.7500 C   0  0  0  0  0  0  0  0  0  0  0  0
    0.6000   10.5320   19.2150 C   0  0  1  0  0  0  0  0  0  0  0  0
    2.8890    7.0930   16.9130 H   0  0  0  0  0  0  0  0  0  0  0  0
    1.8040    9.3000   16.8870 H   0  0  0  0  0  0  0  0  0  0  0  0
    2.0690    6.7220   21.1410 H   0  0  0  0  0  0  0  0  0  0  0  0
    1.3490    9.1950   22.2320 H   0  0  0  0  0  0  0  0  0  0  0  0
   -0.2340    8.8190   21.4770 H   0  0  0  0  0  0  0  0  0  0  0  0
    1.5980   11.2080   21.0370 H   0  0  0  0  0  0  0  0  0  0  0  0
   -0.1590   11.2240   21.1630 H   0  0  0  0  0  0  0  0  0  0  0  0
   -0.4450   10.4140   18.9000 H   0  0  0  0  0  0  0  0  0  0  0  0
    1.2040   11.6510   18.5320 N   0  0  0  0  0  0  0  0  0  0  0  0
    1.7930   12.6600   19.2470 C   0  0  0  0  0  0  0  0  0  0  0  0
    1.7700   12.7430   20.4670 O   0  0  0  0  0  0  0  0  0  0  0  0
    2.3970   13.5700   18.4160 N   0  0  0  0  0  0  0  0  0  0  0  0
    1.6230   11.4470   17.6370 H   0  0  0  0  0  0  0  0  0  0  0  0
    1.9420   13.6540   17.5180 H   0  0  0  0  0  0  0  0  0  0  0  0
    2.9470   14.8020   18.9510 C   0  0  0  0  0  0  0  0  0  0  0  0
    2.4740   14.9910   19.9190 H   0  0  0  0  0  0  0  0  0  0  0  0
    2.6310   15.6120   18.2820 H   0  0  0  0  0  0  0  0  0  0  0  0
    4.4560   14.8030   19.0110 C   0  0  0  0  0  0  0  0  0  0  0  0
    5.1930   14.9010   17.8140 C   0  0  0  0  0  0  0  0  0  0  0  0
    6.5890   14.9540   17.8380 C   0  0  0  0  0  0  0  0  0  0  0  0
    7.2600   14.9220   19.0560 C   0  0  0  0  0  0  0  0  0  0  0  0
    8.5980   14.9800   19.0710 F   0  0  0  0  0  0  0  0  0  0  0  0
    6.5650   14.8270   20.2510 C   0  0  0  0  0  0  0  0  0  0  0  0
    5.1680   14.7530   20.2250 C   0  0  0  0  0  0  0  0  0  0  0  0
    4.6790   14.9360   16.8550 H   0  0  0  0  0  0  0  0  0  0  0  0
    7.1580   15.0240   16.9150 H   0  0  0  0  0  0  0  0  0  0  0  0
    7.1100   14.8020   21.1920 H   0  0  0  0  0  0  0  0  0  0  0  0
    4.4950   14.6240   21.5290 C   0  0  0  0  0  0  0  0  0  0  0  0
    5.0910   13.7710   22.4090 N   0  0  0  0  0  0  0  0  0  0  0  0
    3.4880   15.2660   21.7890 O   0  0  0  0  0  0  0  0  0  0  0  0
    5.8070   13.1050   22.1070 H   0  0  0  0  0  0  0  0  0  0  0  0
    4.6130   13.5680   23.2730 H   0  0  0  0  0  0  0  0  0  0  0  0
    3.1640    5.4550   18.9280 N   0  0  0  0  0  0  0  0  0  0  0  0
    3.6180    5.2430   19.8170 H   0  0  0  0  0  0  0  0  0  0  0  0
    4.0340    5.1330   17.7870 C   0  0  1  0  0  0  0  0  0  0  0  0
    3.6620    5.6190   16.8760 H   0  0  0  0  0  0  0  0  0  0  0  0
    5.4340    5.6590   18.0610 C   0  0  0  0  0  0  0  0  0  0  0  0
    6.1850    5.2360   19.1740 C   0  0  0  0  0  0  0  0  0  0  0  0
    7.4690    5.7400   19.4050 C   0  0  0  0  0  0  0  0  0  0  0  0
    8.0220    6.6760   18.5290 C   0  0  0  0  0  0  0  0  0  0  0  0
    7.2930    7.1000   17.4190 C   0  0  0  0  0  0  0  0  0  0  0  0
    6.0160    6.5890   17.1920 C   0  0  0  0  0  0  0  0  0  0  0  0
    5.3490    7.0020   16.1040 F   0  0  0  0  0  0  0  0  0  0  0  0
    5.7670    4.5070   19.8710 H   0  0  0  0  0  0  0  0  0  0  0  0
    8.0370    5.4060   20.2710 H   0  0  0  0  0  0  0  0  0  0  0  0
    9.0220    7.0680   18.7090 H   0  0  0  0  0  0  0  0  0  0  0  0
    7.7090    7.8250   16.7260 H   0  0  0  0  0  0  0  0  0  0  0  0
    4.0680    3.6160   17.5710 C   0  0  0  0  0  0  0  0  0  0  0  0
    4.4810    3.1030   18.4470 H   0  0  0  0  0  0  0  0  0  0  0  0
    3.0680    3.2080   17.3870 H   0  0  0  0  0  0  0  0  0  0  0  0
    4.6850    3.3510   16.7070 H   0  0  0  0  0  0  0  0  0  0  0  0
  1  6  1  0  0  0  0
  2  1  2  0  0  0  0
  3  2  1  0  0  0  0
  3  4  2  0  0  0  0
  4  9  1  0  0  0  0
  4  5  1  0  0  0  0
  5  6  2  0  0  0  0
  5  7  1  0  0  0  0
  6 12  1  0  0  0  0
  7 14  1  0  0  0  0
  7 13  1  0  0  0  0
  8 15  1  0  0  0  0
  8 16  1  0  0  0  0
  8  7  1  0  0  0  0
  9 17  1  6  0  0  0
  9  8  1  0  0  0  0
 10  2  1  0  0  0  0
 11  3  1  0  0  0  0
 18  9  1  0  0  0  0
 18 19  1  0  0  0  0
 19 20  2  0  0  0  0
 21 24  1  0  0  0  0
 21 19  1  0  0  0  0
 22 18  1  0  0  0  0
 23 21  1  0  0  0  0
 24 27  1  0  0  0  0
 24 25  1  0  0  0  0
 26 24  1  0  0  0  0
 27 33  1  0  0  0  0
 28 29  1  0  0  0  0
 28 27  2  0  0  0  0
 29 30  2  0  0  0  0
 30 31  1  0  0  0  0
 30 32  1  0  0  0  0
 32 36  1  0  0  0  0
 33 32  2  0  0  0  0
 33 37  1  0  0  0  0
 34 28  1  0  0  0  0
 35 29  1  0  0  0  0
 37 39  2  0  0  0  0
 37 38  1  0  0  0  0
 38 41  1  0  0  0  0
 40 38  1  0  0  0  0
 42  1  1  0  0  0  0
 42 43  1  0  0  0  0
 44 45  1  6  0  0  0
 44 46  1  0  0  0  0
 44 42  1  0  0  0  0
 46 47  1  0  0  0  0
 47 48  2  0  0  0  0
 47 53  1  0  0  0  0
 48 54  1  0  0  0  0
 49 55  1  0  0  0  0
 49 48  1  0  0  0  0
 50 49  2  0  0  0  0
 51 50  1  0  0  0  0
 51 46  2  0  0  0  0
 52 51  1  0  0  0  0
 56 50  1  0  0  0  0
 57 44  1  0  0  0  0
 57 58  1  0  0  0  0
 59 57  1  0  0  0  0
 60 57  1  0  0  0  0
M  END
>  <MODEL>
17

>  <REMARK>
 VINA RESULT:    -8.334      4.721      9.229
 INTER + INTRA:         -12.097
 INTER:                 -12.054
 INTRA:                  -0.044
 UNBOUND:                -0.109
  Name = 
  8 active torsions:
  status: ('A' for Active; 'I' for Inactive)
    1  A    between atoms: C_1  and  C_2
    2  A    between atoms: C_2  and  N_3
    3  A    between atoms: C_2  and  C_28
    4  A    between atoms: N_3  and  C_4
    5  A    between atoms: C_12  and  N_13
    6  A    between atoms: N_16  and  C_17
    7  A    between atoms: C_17  and  C_18
    8  A    between atoms: C_24  and  C_25
                            x       y       z     vdW  Elec       q    Type
                         _______ _______ _______ _____ _____    ______ ____

>  <TORSDO>
F 8

$$$$
=
 OpenBabel07192307433D

 60 63  0  0  1  0  0  0  0  0999 V2000
    1.2140    9.4620   19.1070 C   0  0  0  0  0  0  0  0  0  0  0  0
    2.0120    9.3100   17.9530 C   0  0  0  0  0  0  0  0  0  0  0  0
    2.7860    8.1660   17.7310 C   0  0  0  0  0  0  0  0  0  0  0  0
    2.7270    7.1420   18.6570 C   0  0  0  0  0  0  0  0  0  0  0  0
    1.9060    7.2520   19.7800 C   0  0  0  0  0  0  0  0  0  0  0  0
    1.1420    8.3900   20.0070 C   0  0  0  0  0  0  0  0  0  0  0  0
    2.0410    6.0470   20.6620 C   0  0  0  0  0  0  0  0  0  0  0  0
    2.6800    5.0340   19.6980 C   0  0  0  0  0  0  0  0  0  0  0  0
    3.5010    5.8550   18.6840 C   0  0  1  0  0  0  0  0  0  0  0  0
    2.0470   10.1080   17.2130 H   0  0  0  0  0  0  0  0  0  0  0  0
    3.4190    8.0980   16.8540 H   0  0  0  0  0  0  0  0  0  0  0  0
    0.5190    8.4280   20.8910 H   0  0  0  0  0  0  0  0  0  0  0  0
    1.0750    5.6890   21.0360 H   0  0  0  0  0  0  0  0  0  0  0  0
    2.7080    6.2700   21.5020 H   0  0  0  0  0  0  0  0  0  0  0  0
    1.8810    4.4780   19.1850 H   0  0  0  0  0  0  0  0  0  0  0  0
    3.2940    4.2930   20.2230 H   0  0  0  0  0  0  0  0  0  0  0  0
    4.5130    6.0380   19.0700 H   0  0  0  0  0  0  0  0  0  0  0  0
    3.5690    5.2200   17.3880 N   0  0  0  0  0  0  0  0  0  0  0  0
    4.6730    4.4900   17.0360 C   0  0  0  0  0  0  0  0  0  0  0  0
    5.6850    4.4010   17.7150 O   0  0  0  0  0  0  0  0  0  0  0  0
    4.4980    3.8850   15.8170 N   0  0  0  0  0  0  0  0  0  0  0  0
    2.6920    4.8990   17.0090 H   0  0  0  0  0  0  0  0  0  0  0  0
    3.8970    4.4070   15.1950 H   0  0  0  0  0  0  0  0  0  0  0  0
    5.6000    3.1900   15.1760 C   0  0  0  0  0  0  0  0  0  0  0  0
    5.1930    2.3140   14.6610 H   0  0  0  0  0  0  0  0  0  0  0  0
    6.2490    2.8120   15.9750 H   0  0  0  0  0  0  0  0  0  0  0  0
    6.4250    4.0810   14.2800 C   0  0  0  0  0  0  0  0  0  0  0  0
    7.2960    5.0250   14.8600 C   0  0  0  0  0  0  0  0  0  0  0  0
    8.1100    5.8310   14.0600 C   0  0  0  0  0  0  0  0  0  0  0  0
    8.0720    5.6940   12.6770 C   0  0  0  0  0  0  0  0  0  0  0  0
    8.8590    6.4650   11.9170 F   0  0  0  0  0  0  0  0  0  0  0  0
    7.2270    4.7740   12.0740 C   0  0  0  0  0  0  0  0  0  0  0  0
    6.3980    3.9820   12.8750 C   0  0  0  0  0  0  0  0  0  0  0  0
    7.3420    5.1360   15.9420 H   0  0  0  0  0  0  0  0  0  0  0  0
    8.7770    6.5630   14.5070 H   0  0  0  0  0  0  0  0  0  0  0  0
    7.2120    4.6840   10.9910 H   0  0  0  0  0  0  0  0  0  0  0  0
    5.5050    3.0470   12.1680 C   0  0  0  0  0  0  0  0  0  0  0  0
    6.0770    1.8690   11.7910 N   0  0  0  0  0  0  0  0  0  0  0  0
    4.3300    3.3210   11.9680 O   0  0  0  0  0  0  0  0  0  0  0  0
    7.0930    1.7440   11.7920 H   0  0  0  0  0  0  0  0  0  0  0  0
    5.5390    1.2420   11.2150 H   0  0  0  0  0  0  0  0  0  0  0  0
    0.4630   10.6410   19.2200 N   0  0  0  0  0  0  0  0  0  0  0  0
    0.9640   11.3150   19.7980 H   0  0  0  0  0  0  0  0  0  0  0  0
   -0.9670   10.5940   19.5620 C   0  0  1  0  0  0  0  0  0  0  0  0
   -1.2350    9.6000   19.9410 H   0  0  0  0  0  0  0  0  0  0  0  0
   -1.2510   11.6070   20.6600 C   0  0  0  0  0  0  0  0  0  0  0  0
   -1.8190   12.8650   20.3840 C   0  0  0  0  0  0  0  0  0  0  0  0
   -2.0660   13.7800   21.4140 C   0  0  0  0  0  0  0  0  0  0  0  0
   -1.7480   13.4520   22.7330 C   0  0  0  0  0  0  0  0  0  0  0  0
   -1.1920   12.2080   23.0220 C   0  0  0  0  0  0  0  0  0  0  0  0
   -0.9530   11.2990   21.9920 C   0  0  0  0  0  0  0  0  0  0  0  0
   -0.4360   10.1020   22.3070 F   0  0  0  0  0  0  0  0  0  0  0  0
   -2.0710   13.1390   19.3580 H   0  0  0  0  0  0  0  0  0  0  0  0
   -2.5020   14.7510   21.1860 H   0  0  0  0  0  0  0  0  0  0  0  0
   -1.9410   14.1650   23.5340 H   0  0  0  0  0  0  0  0  0  0  0  0
   -0.9420   11.9350   24.0430 H   0  0  0  0  0  0  0  0  0  0  0  0
   -1.8100   10.9040   18.3200 C   0  0  0  0  0  0  0  0  0  0  0  0
   -2.8710   10.7030   18.5040 H   0  0  0  0  0  0  0  0  0  0  0  0
   -1.7160   11.9510   18.0160 H   0  0  0  0  0  0  0  0  0  0  0  0
   -1.4970   10.2940   17.4660 H   0  0  0  0  0  0  0  0  0  0  0  0
  1 42  1  0  0  0  0
  1  6  1  0  0  0  0
  2  1  2  0  0  0  0
  3  2  1  0  0  0  0
  3  4  2  0  0  0  0
  4  9  1  0  0  0  0
  4  5  1  0  0  0  0
  5  6  2  0  0  0  0
  5  7  1  0  0  0  0
  6 12  1  0  0  0  0
  7 13  1  0  0  0  0
  7 14  1  0  0  0  0
  8 16  1  0  0  0  0
  8  7  1  0  0  0  0
  9 17  1  1  0  0  0
  9  8  1  0  0  0  0
 10  2  1  0  0  0  0
 11  3  1  0  0  0  0
 15  8  1  0  0  0  0
 18  9  1  0  0  0  0
 19 18  1  0  0  0  0
 19 20  2  0  0  0  0
 21 19  1  0  0  0  0
 22 18  1  0  0  0  0
 23 21  1  0  0  0  0
 24 21  1  0  0  0  0
 24 26  1  0  0  0  0
 25 24  1  0  0  0  0
 27 28  1  0  0  0  0
 27 24  1  0  0  0  0
 28 34  1  0  0  0  0
 29 35  1  0  0  0  0
 29 28  2  0  0  0  0
 30 29  1  0  0  0  0
 31 30  1  0  0  0  0
 32 30  2  0  0  0  0
 32 33  1  0  0  0  0
 33 27  2  0  0  0  0
 36 32  1  0  0  0  0
 37 33  1  0  0  0  0
 38 40  1  0  0  0  0
 38 37  1  0  0  0  0
 39 37  2  0  0  0  0
 41 38  1  0  0  0  0
 42 44  1  0  0  0  0
 42 43  1  0  0  0  0
 44 45  1  1  0  0  0
 44 46  1  0  0  0  0
 46 51  1  0  0  0  0
 47 46  2  0  0  0  0
 47 48  1  0  0  0  0
 48 49  2  0  0  0  0
 49 50  1  0  0  0  0
 49 55  1  0  0  0  0
 50 56  1  0  0  0  0
 51 52  1  0  0  0  0
 51 50  2  0  0  0  0
 53 47  1  0  0  0  0
 54 48  1  0  0  0  0
 57 58  1  0  0  0  0
 57 44  1  0  0  0  0
 59 57  1  0  0  0  0
 60 57  1  0  0  0  0
M  END
>  <MODEL>
18

>  <REMARK>
 VINA RESULT:    -8.320      2.456      3.195
 INTER + INTRA:         -12.076
 INTER:                 -10.858
 INTRA:                  -1.219
 UNBOUND:                -0.109
  Name = 
  8 active torsions:
  status: ('A' for Active; 'I' for Inactive)
    1  A    between atoms: C_1  and  C_2
    2  A    between atoms: C_2  and  N_3
    3  A    between atoms: C_2  and  C_28
    4  A    between atoms: N_3  and  C_4
    5  A    between atoms: C_12  and  N_13
    6  A    between atoms: N_16  and  C_17
    7  A    between atoms: C_17  and  C_18
    8  A    between atoms: C_24  and  C_25
                            x       y       z     vdW  Elec       q    Type
                         _______ _______ _______ _____ _____    ______ ____

>  <TORSDO>
F 8

$$$$
=
 OpenBabel07192307433D

 60 63  0  0  1  0  0  0  0  0999 V2000
    2.7390    7.5240   18.1810 C   0  0  0  0  0  0  0  0  0  0  0  0
    2.1580    8.6490   17.5560 C   0  0  0  0  0  0  0  0  0  0  0  0
    1.2460    9.4770   18.2200 C   0  0  0  0  0  0  0  0  0  0  0  0
    0.9430    9.2000   19.5390 C   0  0  0  0  0  0  0  0  0  0  0  0
    1.5440    8.1210   20.1890 C   0  0  0  0  0  0  0  0  0  0  0  0
    2.4450    7.2920   19.5320 C   0  0  0  0  0  0  0  0  0  0  0  0
    1.0290    7.9880   21.5910 C   0  0  0  0  0  0  0  0  0  0  0  0
    0.4110    9.3750   21.8230 C   0  0  0  0  0  0  0  0  0  0  0  0
   -0.0420    9.8870   20.4400 C   0  0  1  0  0  0  0  0  0  0  0  0
    2.4090    8.8810   16.5230 H   0  0  0  0  0  0  0  0  0  0  0  0
    0.7880   10.3100   17.6980 H   0  0  0  0  0  0  0  0  0  0  0  0
    2.8870    6.4700   20.0790 H   0  0  0  0  0  0  0  0  0  0  0  0
    1.8260    7.7790   22.3130 H   0  0  0  0  0  0  0  0  0  0  0  0
    0.2680    7.2010   21.6380 H   0  0  0  0  0  0  0  0  0  0  0  0
    1.1770   10.0410   22.2460 H   0  0  0  0  0  0  0  0  0  0  0  0
   -0.4150    9.3470   22.5420 H   0  0  0  0  0  0  0  0  0  0  0  0
   -1.0590    9.5360   20.2170 H   0  0  0  0  0  0  0  0  0  0  0  0
    0.0210   11.3260   20.3380 N   0  0  0  0  0  0  0  0  0  0  0  0
   -1.0130   12.0960   20.8010 C   0  0  0  0  0  0  0  0  0  0  0  0
   -2.0670   11.6480   21.2280 O   0  0  0  0  0  0  0  0  0  0  0  0
   -0.7150   13.4320   20.7090 N   0  0  0  0  0  0  0  0  0  0  0  0
    0.9400   11.7330   20.4180 H   0  0  0  0  0  0  0  0  0  0  0  0
   -0.0980   13.6520   19.9410 H   0  0  0  0  0  0  0  0  0  0  0  0
   -1.7270   14.4330   20.9980 C   0  0  0  0  0  0  0  0  0  0  0  0
   -2.6210   14.1870   20.4160 H   0  0  0  0  0  0  0  0  0  0  0  0
   -1.3530   15.3890   20.6110 H   0  0  0  0  0  0  0  0  0  0  0  0
   -1.9980   14.5960   22.4740 C   0  0  0  0  0  0  0  0  0  0  0  0
   -0.9540   15.0120   23.3250 C   0  0  0  0  0  0  0  0  0  0  0  0
   -1.1850   15.2200   24.6870 C   0  0  0  0  0  0  0  0  0  0  0  0
   -2.4590   15.0270   25.2090 C   0  0  0  0  0  0  0  0  0  0  0  0
   -2.6730   15.2350   26.5150 F   0  0  0  0  0  0  0  0  0  0  0  0
   -3.5070   14.6190   24.4000 C   0  0  0  0  0  0  0  0  0  0  0  0
   -3.2720   14.3920   23.0400 C   0  0  0  0  0  0  0  0  0  0  0  0
    0.0450   15.1750   22.9260 H   0  0  0  0  0  0  0  0  0  0  0  0
   -0.3790   15.5350   25.3440 H   0  0  0  0  0  0  0  0  0  0  0  0
   -4.4950   14.4730   24.8290 H   0  0  0  0  0  0  0  0  0  0  0  0
   -4.4230   13.9320   22.2440 C   0  0  0  0  0  0  0  0  0  0  0  0
   -4.6580   12.5910   22.2820 N   0  0  0  0  0  0  0  0  0  0  0  0
   -5.1200   14.7220   21.6220 O   0  0  0  0  0  0  0  0  0  0  0  0
   -3.9590   11.9350   22.6410 H   0  0  0  0  0  0  0  0  0  0  0  0
   -5.3670   12.2140   21.6730 H   0  0  0  0  0  0  0  0  0  0  0  0
    3.6570    6.7740   17.4310 N   0  0  0  0  0  0  0  0  0  0  0  0
    3.1670    6.2730   16.6900 H   0  0  0  0  0  0  0  0  0  0  0  0
    4.6520    5.9190   18.0950 C   0  0  1  0  0  0  0  0  0  0  0  0
    4.8500    6.2840   19.1110 H   0  0  0  0  0  0  0  0  0  0  0  0
    4.1030    4.5050   18.2030 C   0  0  0  0  0  0  0  0  0  0  0  0
    3.0940    4.0300   17.3440 C   0  0  0  0  0  0  0  0  0  0  0  0
    2.6040    2.7250   17.4690 C   0  0  0  0  0  0  0  0  0  0  0  0
    3.1120    1.8760   18.4540 C   0  0  0  0  0  0  0  0  0  0  0  0
    4.1160    2.3310   19.3070 C   0  0  0  0  0  0  0  0  0  0  0  0
    4.6040    3.6300   19.1740 C   0  0  0  0  0  0  0  0  0  0  0  0
    5.5840    4.0300   19.9980 F   0  0  0  0  0  0  0  0  0  0  0  0
    2.6830    4.6800   16.5700 H   0  0  0  0  0  0  0  0  0  0  0  0
    1.8210    2.3720   16.8000 H   0  0  0  0  0  0  0  0  0  0  0  0
    2.7310    0.8610   18.5500 H   0  0  0  0  0  0  0  0  0  0  0  0
    4.5260    1.6840   20.0770 H   0  0  0  0  0  0  0  0  0  0  0  0
    5.9590    5.9230   17.2950 C   0  0  0  0  0  0  0  0  0  0  0  0
    6.2290    4.9100   16.9770 H   0  0  0  0  0  0  0  0  0  0  0  0
    5.8840    6.5460   16.3970 H   0  0  0  0  0  0  0  0  0  0  0  0
    6.7880    6.3190   17.8900 H   0  0  0  0  0  0  0  0  0  0  0  0
  1  6  1  0  0  0  0
  2  1  2  0  0  0  0
  2  3  1  0  0  0  0
  3  4  2  0  0  0  0
  4  5  1  0  0  0  0
  4  9  1  0  0  0  0
  5  7  1  0  0  0  0
  6 12  1  0  0  0  0
  6  5  2  0  0  0  0
  7 14  1  0  0  0  0
  7  8  1  0  0  0  0
  7 13  1  0  0  0  0
  8 15  1  0  0  0  0
  8 16  1  0  0  0  0
  9 17  1  6  0  0  0
  9  8  1  0  0  0  0
 10  2  1  0  0  0  0
 11  3  1  0  0  0  0
 18 22  1  0  0  0  0
 18  9  1  0  0  0  0
 18 19  1  0  0  0  0
 19 20  2  0  0  0  0
 21 19  1  0  0  0  0
 21 24  1  0  0  0  0
 23 21  1  0  0  0  0
 24 27  1  0  0  0  0
 25 24  1  0  0  0  0
 26 24  1  0  0  0  0
 27 33  2  0  0  0  0
 27 28  1  0  0  0  0
 28 29  2  0  0  0  0
 29 30  1  0  0  0  0
 29 35  1  0  0  0  0
 30 31  1  0  0  0  0
 32 36  1  0  0  0  0
 32 30  2  0  0  0  0
 33 32  1  0  0  0  0
 34 28  1  0  0  0  0
 37 38  1  0  0  0  0
 37 33  1  0  0  0  0
 38 40  1  0  0  0  0
 39 37  2  0  0  0  0
 41 38  1  0  0  0  0
 42 44  1  0  0  0  0
 42  1  1  0  0  0  0
 43 42  1  0  0  0  0
 44 46  1  0  0  0  0
 44 45  1  1  0  0  0
 46 51  1  0  0  0  0
 47 48  1  0  0  0  0
 47 46  2  0  0  0  0
 48 49  2  0  0  0  0
 49 55  1  0  0  0  0
 49 50  1  0  0  0  0
 50 56  1  0  0  0  0
 51 50  2  0  0  0  0
 51 52  1  0  0  0  0
 53 47  1  0  0  0  0
 54 48  1  0  0  0  0
 57 60  1  0  0  0  0
 57 44  1  0  0  0  0
 58 57  1  0  0  0  0
 59 57  1  0  0  0  0
M  END
>  <MODEL>
19

>  <REMARK>
 VINA RESULT:    -8.319      4.897     11.453
 INTER + INTRA:         -12.075
 INTER:                 -10.649
 INTRA:                  -1.426
 UNBOUND:                -0.109
  Name = 
  8 active torsions:
  status: ('A' for Active; 'I' for Inactive)
    1  A    between atoms: C_1  and  C_2
    2  A    between atoms: C_2  and  N_3
    3  A    between atoms: C_2  and  C_28
    4  A    between atoms: N_3  and  C_4
    5  A    between atoms: C_12  and  N_13
    6  A    between atoms: N_16  and  C_17
    7  A    between atoms: C_17  and  C_18
    8  A    between atoms: C_24  and  C_25
                            x       y       z     vdW  Elec       q    Type
                         _______ _______ _______ _____ _____    ______ ____

>  <TORSDO>
F 8

$$$$
=
 OpenBabel07192307433D

 60 63  0  0  1  0  0  0  0  0999 V2000
    4.1930    6.2180   17.1010 C   0  0  0  0  0  0  0  0  0  0  0  0
    3.5920    7.4620   17.3910 C   0  0  0  0  0  0  0  0  0  0  0  0
    2.7170    7.6290   18.4700 C   0  0  0  0  0  0  0  0  0  0  0  0
    2.4730    6.5470   19.2940 C   0  0  0  0  0  0  0  0  0  0  0  0
    3.0960    5.3210   19.0530 C   0  0  0  0  0  0  0  0  0  0  0  0
    3.9600    5.1500   17.9780 C   0  0  0  0  0  0  0  0  0  0  0  0
    2.6460    4.2880   20.0410 C   0  0  0  0  0  0  0  0  0  0  0  0
    2.0480    5.1680   21.1510 C   0  0  0  0  0  0  0  0  0  0  0  0
    1.5350    6.4500   20.4630 C   0  0  1  0  0  0  0  0  0  0  0  0
    3.7960    8.3210   16.7550 H   0  0  0  0  0  0  0  0  0  0  0  0
    2.2410    8.5880   18.6410 H   0  0  0  0  0  0  0  0  0  0  0  0
    4.4210    4.1820   17.8330 H   0  0  0  0  0  0  0  0  0  0  0  0
    3.4740    3.6770   20.4170 H   0  0  0  0  0  0  0  0  0  0  0  0
    1.8820    3.6460   19.5900 H   0  0  0  0  0  0  0  0  0  0  0  0
    2.8380    5.4120   21.8760 H   0  0  0  0  0  0  0  0  0  0  0  0
    1.2560    4.6540   21.7070 H   0  0  0  0  0  0  0  0  0  0  0  0
    0.5070    6.3060   20.1040 H   0  0  0  0  0  0  0  0  0  0  0  0
    1.6040    7.6040   21.3280 N   0  0  0  0  0  0  0  0  0  0  0  0
    0.4780    8.3400   21.5850 C   0  0  0  0  0  0  0  0  0  0  0  0
   -0.6060    8.1500   21.0520 O   0  0  0  0  0  0  0  0  0  0  0  0
    0.7300    9.3250   22.5070 N   0  0  0  0  0  0  0  0  0  0  0  0
    2.2750    7.5520   22.0800 H   0  0  0  0  0  0  0  0  0  0  0  0
    1.6800    9.6670   22.4760 H   0  0  0  0  0  0  0  0  0  0  0  0
   -0.2800   10.3230   22.8120 C   0  0  0  0  0  0  0  0  0  0  0  0
   -0.1470   10.6300   23.8540 H   0  0  0  0  0  0  0  0  0  0  0  0
   -1.2540    9.8220   22.7530 H   0  0  0  0  0  0  0  0  0  0  0  0
   -0.2850   11.4790   21.8420 C   0  0  0  0  0  0  0  0  0  0  0  0
    0.5570   11.4360   20.7130 C   0  0  0  0  0  0  0  0  0  0  0  0
    0.5390   12.4670   19.7700 C   0  0  0  0  0  0  0  0  0  0  0  0
   -0.3260   13.5420   19.9390 C   0  0  0  0  0  0  0  0  0  0  0  0
   -0.3410   14.5230   19.0280 F   0  0  0  0  0  0  0  0  0  0  0  0
   -1.1680   13.6150   21.0370 C   0  0  0  0  0  0  0  0  0  0  0  0
   -1.1350   12.5920   21.9920 C   0  0  0  0  0  0  0  0  0  0  0  0
    1.2320   10.5950   20.5650 H   0  0  0  0  0  0  0  0  0  0  0  0
    1.1930   12.4360   18.9030 H   0  0  0  0  0  0  0  0  0  0  0  0
   -1.8350   14.4660   21.1500 H   0  0  0  0  0  0  0  0  0  0  0  0
   -2.0350   12.7480   23.1480 C   0  0  0  0  0  0  0  0  0  0  0  0
   -1.8160   13.8560   23.9100 N   0  0  0  0  0  0  0  0  0  0  0  0
   -2.9240   11.9390   23.3730 O   0  0  0  0  0  0  0  0  0  0  0  0
   -0.9560   14.4040   23.8220 H   0  0  0  0  0  0  0  0  0  0  0  0
   -2.3340   13.9530   24.7690 H   0  0  0  0  0  0  0  0  0  0  0  0
    5.0700    6.1670   16.0070 N   0  0  0  0  0  0  0  0  0  0  0  0
    4.5360    6.0860   15.1420 H   0  0  0  0  0  0  0  0  0  0  0  0
    6.2300    5.2620   16.0130 C   0  0  1  0  0  0  0  0  0  0  0  0
    5.9880    4.3380   16.5540 H   0  0  0  0  0  0  0  0  0  0  0  0
    6.5790    4.8890   14.5810 C   0  0  0  0  0  0  0  0  0  0  0  0
    7.6810    5.4550   13.9110 C   0  0  0  0  0  0  0  0  0  0  0  0
    7.9770    5.0960   12.5920 C   0  0  0  0  0  0  0  0  0  0  0  0
    7.1770    4.1700   11.9200 C   0  0  0  0  0  0  0  0  0  0  0  0
    6.0870    3.5980   12.5730 C   0  0  0  0  0  0  0  0  0  0  0  0
    5.8000    3.9550   13.8890 C   0  0  0  0  0  0  0  0  0  0  0  0
    4.7560    3.3690   14.4950 F   0  0  0  0  0  0  0  0  0  0  0  0
    8.3160    6.1820   14.4200 H   0  0  0  0  0  0  0  0  0  0  0  0
    8.8300    5.5440   12.0850 H   0  0  0  0  0  0  0  0  0  0  0  0
    7.4080    3.8920   10.8930 H   0  0  0  0  0  0  0  0  0  0  0  0
    5.4550    2.8730   12.0670 H   0  0  0  0  0  0  0  0  0  0  0  0
    7.4210    5.9470   16.6910 C   0  0  0  0  0  0  0  0  0  0  0  0
    7.8330    6.7390   16.0560 H   0  0  0  0  0  0  0  0  0  0  0  0
    7.1390    6.4000   17.6480 H   0  0  0  0  0  0  0  0  0  0  0  0
    8.2240    5.2330   16.8990 H   0  0  0  0  0  0  0  0  0  0  0  0
  1  2  2  0  0  0  0
  1  6  1  0  0  0  0
  2  3  1  0  0  0  0
  3 11  1  0  0  0  0
  3  4  2  0  0  0  0
  4  9  1  0  0  0  0
  5  4  1  0  0  0  0
  5  7  1  0  0  0  0
  6  5  2  0  0  0  0
  7 13  1  0  0  0  0
  7  8  1  0  0  0  0
  8 16  1  0  0  0  0
  8 15  1  0  0  0  0
  9 17  1  6  0  0  0
  9  8  1  0  0  0  0
  9 18  1  0  0  0  0
 10  2  1  0  0  0  0
 12  6  1  0  0  0  0
 14  7  1  0  0  0  0
 18 19  1  0  0  0  0
 18 22  1  0  0  0  0
 19 21  1  0  0  0  0
 20 19  2  0  0  0  0
 21 24  1  0  0  0  0
 23 21  1  0  0  0  0
 24 25  1  0  0  0  0
 26 24  1  0  0  0  0
 27 33  1  0  0  0  0
 27 24  1  0  0  0  0
 28 27  2  0  0  0  0
 29 30  2  0  0  0  0
 29 28  1  0  0  0  0
 30 32  1  0  0  0  0
 31 30  1  0  0  0  0
 32 36  1  0  0  0  0
 32 33  2  0  0  0  0
 33 37  1  0  0  0  0
 34 28  1  0  0  0  0
 35 29  1  0  0  0  0
 37 39  2  0  0  0  0
 37 38  1  0  0  0  0
 38 41  1  0  0  0  0
 40 38  1  0  0  0  0
 42 44  1  0  0  0  0
 42  1  1  0  0  0  0
 43 42  1  0  0  0  0
 44 45  1  1  0  0  0
 44 57  1  0  0  0  0
 46 44  1  0  0  0  0
 47 53  1  0  0  0  0
 47 46  1  0  0  0  0
 48 47  2  0  0  0  0
 49 50  2  0  0  0  0
 49 48  1  0  0  0  0
 50 51  1  0  0  0  0
 51 52  1  0  0  0  0
 51 46  2  0  0  0  0
 54 48  1  0  0  0  0
 55 49  1  0  0  0  0
 56 50  1  0  0  0  0
 57 60  1  0  0  0  0
 57 59  1  0  0  0  0
 58 57  1  0  0  0  0
M  END
>  <MODEL>
20

>  <REMARK>
 VINA RESULT:    -8.179      3.326     10.232
 INTER + INTRA:         -11.874
 INTER:                 -11.041
 INTRA:                  -0.833
 UNBOUND:                -0.109
  Name = 
  8 active torsions:
  status: ('A' for Active; 'I' for Inactive)
    1  A    between atoms: C_1  and  C_2
    2  A    between atoms: C_2  and  N_3
    3  A    between atoms: C_2  and  C_28
    4  A    between atoms: N_3  and  C_4
    5  A    between atoms: C_12  and  N_13
    6  A    between atoms: N_16  and  C_17
    7  A    between atoms: C_17  and  C_18
    8  A    between atoms: C_24  and  C_25
                            x       y       z     vdW  Elec       q    Type
                         _______ _______ _______ _____ _____    ______ ____

>  <TORSDO>
F 8

$$$$
=
 OpenBabel07192307433D

 60 63  0  0  1  0  0  0  0  0999 V2000
    1.0050    9.5270   19.3750 C   0  0  0  0  0  0  0  0  0  0  0  0
    1.7830    9.4490   18.2000 C   0  0  0  0  0  0  0  0  0  0  0  0
    2.6030    8.3500   17.9250 C   0  0  0  0  0  0  0  0  0  0  0  0
    2.6130    7.2950   18.8180 C   0  0  0  0  0  0  0  0  0  0  0  0
    1.8130    7.3320   19.9620 C   0  0  0  0  0  0  0  0  0  0  0  0
    1.0030    8.4250   20.2420 C   0  0  0  0  0  0  0  0  0  0  0  0
    2.0230    6.1070   20.8010 C   0  0  0  0  0  0  0  0  0  0  0  0
    2.6860    5.1560   19.7920 C   0  0  0  0  0  0  0  0  0  0  0  0
    3.4450    6.0460   18.7870 C   0  0  1  0  0  0  0  0  0  0  0  0
    1.7640   10.2700   17.4860 H   0  0  0  0  0  0  0  0  0  0  0  0
    3.2190    8.3390   17.0330 H   0  0  0  0  0  0  0  0  0  0  0  0
    0.3990    8.4060   21.1390 H   0  0  0  0  0  0  0  0  0  0  0  0
    1.0840    5.6940   21.1840 H   0  0  0  0  0  0  0  0  0  0  0  0
    2.6980    6.3350   21.6330 H   0  0  0  0  0  0  0  0  0  0  0  0
    1.9030    4.5800   19.2780 H   0  0  0  0  0  0  0  0  0  0  0  0
    3.3450    4.4290   20.2790 H   0  0  0  0  0  0  0  0  0  0  0  0
    4.4560    6.2640   19.1580 H   0  0  0  0  0  0  0  0  0  0  0  0
    3.5130    5.4560   17.4710 N   0  0  0  0  0  0  0  0  0  0  0  0
    4.5520    4.6260   17.1410 C   0  0  0  0  0  0  0  0  0  0  0  0
    5.5120    4.4040   17.8630 O   0  0  0  0  0  0  0  0  0  0  0  0
    4.3770    4.0890   15.8900 N   0  0  0  0  0  0  0  0  0  0  0  0
    2.6280    5.2440   17.0370 H   0  0  0  0  0  0  0  0  0  0  0  0
    3.8670    4.6940   15.2630 H   0  0  0  0  0  0  0  0  0  0  0  0
    5.4320    3.3030   15.2730 C   0  0  0  0  0  0  0  0  0  0  0  0
    4.9630    2.4780   14.7280 H   0  0  0  0  0  0  0  0  0  0  0  0
    6.0140    2.8530   16.0860 H   0  0  0  0  0  0  0  0  0  0  0  0
    6.3680    4.1280   14.4240 C   0  0  0  0  0  0  0  0  0  0  0  0
    7.2380    5.0440   15.0470 C   0  0  0  0  0  0  0  0  0  0  0  0
    8.1510    5.7870   14.2940 C   0  0  0  0  0  0  0  0  0  0  0  0
    8.2130    5.6130   12.9160 C   0  0  0  0  0  0  0  0  0  0  0  0
    9.0940    6.3230   12.2020 F   0  0  0  0  0  0  0  0  0  0  0  0
    7.3710    4.7190   12.2720 C   0  0  0  0  0  0  0  0  0  0  0  0
    6.4430    3.9910   13.0240 C   0  0  0  0  0  0  0  0  0  0  0  0
    7.2060    5.1830   16.1260 H   0  0  0  0  0  0  0  0  0  0  0  0
    8.8180    6.4970   14.7740 H   0  0  0  0  0  0  0  0  0  0  0  0
    7.4350    4.6000   11.1930 H   0  0  0  0  0  0  0  0  0  0  0  0
    5.5610    3.0810   12.2720 C   0  0  0  0  0  0  0  0  0  0  0  0
    6.1080    1.8770   11.9470 N   0  0  0  0  0  0  0  0  0  0  0  0
    4.4140    3.3990   11.9920 O   0  0  0  0  0  0  0  0  0  0  0  0
    7.1160    1.7120   12.0150 H   0  0  0  0  0  0  0  0  0  0  0  0
    5.5840    1.2630   11.3450 H   0  0  0  0  0  0  0  0  0  0  0  0
    0.2020   10.6660   19.5410 N   0  0  0  0  0  0  0  0  0  0  0  0
   -0.6110   10.4330   20.1110 H   0  0  0  0  0  0  0  0  0  0  0  0
   -0.1660   11.5020   18.3890 C   0  0  1  0  0  0  0  0  0  0  0  0
    0.4400   11.2350   17.5150 H   0  0  0  0  0  0  0  0  0  0  0  0
   -1.6260   11.2560   18.0400 C   0  0  0  0  0  0  0  0  0  0  0  0
   -2.0070   10.5210   16.9020 C   0  0  0  0  0  0  0  0  0  0  0  0
   -3.3570   10.3140   16.6030 C   0  0  0  0  0  0  0  0  0  0  0  0
   -4.3480   10.8390   17.4340 C   0  0  0  0  0  0  0  0  0  0  0  0
   -3.9860   11.5640   18.5680 C   0  0  0  0  0  0  0  0  0  0  0  0
   -2.6380   11.7620   18.8640 C   0  0  0  0  0  0  0  0  0  0  0  0
   -2.3240   12.4460   19.9740 F   0  0  0  0  0  0  0  0  0  0  0  0
   -1.2450   10.1050   16.2390 H   0  0  0  0  0  0  0  0  0  0  0  0
   -3.6370    9.7460   15.7170 H   0  0  0  0  0  0  0  0  0  0  0  0
   -5.3990   10.6770   17.2010 H   0  0  0  0  0  0  0  0  0  0  0  0
   -4.7430   11.9770   19.2280 H   0  0  0  0  0  0  0  0  0  0  0  0
    0.0590   12.9800   18.7260 C   0  0  0  0  0  0  0  0  0  0  0  0
   -0.7960   13.3940   19.2710 H   0  0  0  0  0  0  0  0  0  0  0  0
    0.9510   13.1250   19.3440 H   0  0  0  0  0  0  0  0  0  0  0  0
    0.1980   13.5780   17.8190 H   0  0  0  0  0  0  0  0  0  0  0  0
  1 42  1  0  0  0  0
  1  6  1  0  0  0  0
  2  1  2  0  0  0  0
  3  2  1  0  0  0  0
  3  4  2  0  0  0  0
  4  5  1  0  0  0  0
  5  6  2  0  0  0  0
  5  7  1  0  0  0  0
  6 12  1  0  0  0  0
  7 13  1  0  0  0  0
  7 14  1  0  0  0  0
  8 16  1  0  0  0  0
  8  7  1  0  0  0  0
  9  4  1  0  0  0  0
  9 17  1  1  0  0  0
  9  8  1  0  0  0  0
 10  2  1  0  0  0  0
 11  3  1  0  0  0  0
 15  8  1  0  0  0  0
 18  9  1  0  0  0  0
 19 18  1  0  0  0  0
 19 20  2  0  0  0  0
 21 19  1  0  0  0  0
 22 18  1  0  0  0  0
 23 21  1  0  0  0  0
 24 21  1  0  0  0  0
 24 26  1  0  0  0  0
 25 24  1  0  0  0  0
 27 28  1  0  0  0  0
 27 24  1  0  0  0  0
 28 34  1  0  0  0  0
 29 35  1  0  0  0  0
 29 28  2  0  0  0  0
 30 29  1  0  0  0  0
 31 30  1  0  0  0  0
 32 30  2  0  0  0  0
 32 33  1  0  0  0  0
 33 27  2  0  0  0  0
 36 32  1  0  0  0  0
 37 33  1  0  0  0  0
 38 40  1  0  0  0  0
 38 37  1  0  0  0  0
 39 37  2  0  0  0  0
 41 38  1  0  0  0  0
 42 43  1  0  0  0  0
 44 45  1  6  0  0  0
 44 57  1  0  0  0  0
 44 42  1  0  0  0  0
 46 44  1  0  0  0  0
 46 51  1  0  0  0  0
 47 46  2  0  0  0  0
 48 47  1  0  0  0  0
 48 49  2  0  0  0  0
 49 50  1  0  0  0  0
 50 51  2  0  0  0  0
 50 56  1  0  0  0  0
 51 52  1  0  0  0  0
 53 47  1  0  0  0  0
 54 48  1  0  0  0  0
 55 49  1  0  0  0  0
 57 58  1  0  0  0  0
 57 59  1  0  0  0  0
 60 57  1  0  0  0  0
M  END
>  <MODEL>
21

>  <REMARK>
 VINA RESULT:    -8.153      1.879      2.434
 INTER + INTRA:         -11.837
 INTER:                 -11.041
 INTRA:                  -0.796
 UNBOUND:                -0.109
  Name = 
  8 active torsions:
  status: ('A' for Active; 'I' for Inactive)
    1  A    between atoms: C_1  and  C_2
    2  A    between atoms: C_2  and  N_3
    3  A    between atoms: C_2  and  C_28
    4  A    between atoms: N_3  and  C_4
    5  A    between atoms: C_12  and  N_13
    6  A    between atoms: N_16  and  C_17
    7  A    between atoms: C_17  and  C_18
    8  A    between atoms: C_24  and  C_25
                            x       y       z     vdW  Elec       q    Type
                         _______ _______ _______ _____ _____    ______ ____

>  <TORSDO>
F 8

$$$$
=
 OpenBabel07192307433D

 60 63  0  0  1  0  0  0  0  0999 V2000
   -0.6670   12.7830   22.6350 C   0  0  0  0  0  0  0  0  0  0  0  0
   -0.8670   11.3860   22.6830 C   0  0  0  0  0  0  0  0  0  0  0  0
   -0.4510   10.5410   21.6480 C   0  0  0  0  0  0  0  0  0  0  0  0
    0.2120   11.0970   20.5700 C   0  0  0  0  0  0  0  0  0  0  0  0
    0.4640   12.4690   20.5280 C   0  0  0  0  0  0  0  0  0  0  0  0
    0.0450   13.3120   21.5500 C   0  0  0  0  0  0  0  0  0  0  0  0
    1.1490   12.8480   19.2490 C   0  0  0  0  0  0  0  0  0  0  0  0
    1.6720   11.4850   18.7680 C   0  0  0  0  0  0  0  0  0  0  0  0
    0.6960   10.4250   19.3180 C   0  0  1  0  0  0  0  0  0  0  0  0
   -1.3740   10.9430   23.5380 H   0  0  0  0  0  0  0  0  0  0  0  0
   -0.6570    9.4780   21.6970 H   0  0  0  0  0  0  0  0  0  0  0  0
    0.2660   14.3690   21.4730 H   0  0  0  0  0  0  0  0  0  0  0  0
    1.9690   13.5580   19.4060 H   0  0  0  0  0  0  0  0  0  0  0  0
    0.4230   13.2660   18.5440 H   0  0  0  0  0  0  0  0  0  0  0  0
    2.6810   11.3260   19.1760 H   0  0  0  0  0  0  0  0  0  0  0  0
    1.7610   11.4370   17.6770 H   0  0  0  0  0  0  0  0  0  0  0  0
   -0.1440   10.2820   18.6240 H   0  0  0  0  0  0  0  0  0  0  0  0
    1.3450    9.1620   19.5800 N   0  0  0  0  0  0  0  0  0  0  0  0
    1.9420    8.4690   18.5600 C   0  0  0  0  0  0  0  0  0  0  0  0
    1.8920    8.7970   17.3830 O   0  0  0  0  0  0  0  0  0  0  0  0
    2.5900    7.3550   19.0310 N   0  0  0  0  0  0  0  0  0  0  0  0
    1.7800    9.0700   20.4850 H   0  0  0  0  0  0  0  0  0  0  0  0
    2.1590    6.9620   19.8550 H   0  0  0  0  0  0  0  0  0  0  0  0
    3.1600    6.3900   18.1070 C   0  0  0  0  0  0  0  0  0  0  0  0
    4.2390    6.5660   18.0580 H   0  0  0  0  0  0  0  0  0  0  0  0
    2.7580    6.6200   17.1140 H   0  0  0  0  0  0  0  0  0  0  0  0
    2.7990    4.9630   18.4420 C   0  0  0  0  0  0  0  0  0  0  0  0
    1.5630    4.6910   19.0610 C   0  0  0  0  0  0  0  0  0  0  0  0
    1.1780    3.3770   19.3390 C   0  0  0  0  0  0  0  0  0  0  0  0
    2.0160    2.3230   18.9900 C   0  0  0  0  0  0  0  0  0  0  0  0
    1.6370    1.0670   19.2540 F   0  0  0  0  0  0  0  0  0  0  0  0
    3.2380    2.5560   18.3790 C   0  0  0  0  0  0  0  0  0  0  0  0
    3.6320    3.8730   18.1200 C   0  0  0  0  0  0  0  0  0  0  0  0
    0.8940    5.5060   19.3300 H   0  0  0  0  0  0  0  0  0  0  0  0
    0.2270    3.1680   19.8210 H   0  0  0  0  0  0  0  0  0  0  0  0
    3.8780    1.7180   18.1170 H   0  0  0  0  0  0  0  0  0  0  0  0
    4.9550    4.0500   17.4960 C   0  0  0  0  0  0  0  0  0  0  0  0
    6.0140    3.9910   18.3500 N   0  0  0  0  0  0  0  0  0  0  0  0
    5.0700    4.2110   16.2890 O   0  0  0  0  0  0  0  0  0  0  0  0
    5.8870    4.0540   19.3640 H   0  0  0  0  0  0  0  0  0  0  0  0
    6.9290    4.2100   17.9900 H   0  0  0  0  0  0  0  0  0  0  0  0
   -1.1060   13.5340   23.7360 N   0  0  0  0  0  0  0  0  0  0  0  0
   -1.3600   12.9080   24.4990 H   0  0  0  0  0  0  0  0  0  0  0  0
   -2.0940   14.6100   23.5670 C   0  0  1  0  0  0  0  0  0  0  0  0
   -1.6120   15.5100   23.1650 H   0  0  0  0  0  0  0  0  0  0  0  0
   -3.1550   14.1630   22.5750 C   0  0  0  0  0  0  0  0  0  0  0  0
   -3.3270   14.7980   21.3300 C   0  0  0  0  0  0  0  0  0  0  0  0
   -4.3150   14.3680   20.4380 C   0  0  0  0  0  0  0  0  0  0  0  0
   -5.1470   13.2990   20.7740 C   0  0  0  0  0  0  0  0  0  0  0  0
   -4.9850   12.6560   22.0000 C   0  0  0  0  0  0  0  0  0  0  0  0
   -3.9950   13.0860   22.8830 C   0  0  0  0  0  0  0  0  0  0  0  0
   -3.8510   12.4320   24.0460 F   0  0  0  0  0  0  0  0  0  0  0  0
   -2.6870   15.6370   21.0510 H   0  0  0  0  0  0  0  0  0  0  0  0
   -4.4380   14.8710   19.4800 H   0  0  0  0  0  0  0  0  0  0  0  0
   -5.9150   12.9650   20.0790 H   0  0  0  0  0  0  0  0  0  0  0  0
   -5.6210   11.8210   22.2770 H   0  0  0  0  0  0  0  0  0  0  0  0
   -2.7360   14.9420   24.9190 C   0  0  0  0  0  0  0  0  0  0  0  0
   -2.0120   15.4140   25.5920 H   0  0  0  0  0  0  0  0  0  0  0  0
   -3.5850   15.6250   24.8090 H   0  0  0  0  0  0  0  0  0  0  0  0
   -3.1130   14.0400   25.4120 H   0  0  0  0  0  0  0  0  0  0  0  0
  1  2  1  0  0  0  0
  1 42  1  0  0  0  0
  2 10  1  0  0  0  0
  3 11  1  0  0  0  0
  3  2  2  0  0  0  0
  4  3  1  0  0  0  0
  5  4  2  0  0  0  0
  5  6  1  0  0  0  0
  6  1  2  0  0  0  0
  7 13  1  0  0  0  0
  7  5  1  0  0  0  0
  8 15  1  0  0  0  0
  8  7  1  0  0  0  0
  8  9  1  0  0  0  0
  9 17  1  6  0  0  0
  9 18  1  0  0  0  0
  9  4  1  0  0  0  0
 12  6  1  0  0  0  0
 14  7  1  0  0  0  0
 16  8  1  0  0  0  0
 18 22  1  0  0  0  0
 19 21  1  0  0  0  0
 19 18  1  0  0  0  0
 20 19  2  0  0  0  0
 21 23  1  0  0  0  0
 24 27  1  0  0  0  0
 24 21  1  0  0  0  0
 25 24  1  0  0  0  0
 26 24  1  0  0  0  0
 27 28  1  0  0  0  0
 28 34  1  0  0  0  0
 28 29  2  0  0  0  0
 29 35  1  0  0  0  0
 30 31  1  0  0  0  0
 30 29  1  0  0  0  0
 32 30  2  0  0  0  0
 33 32  1  0  0  0  0
 33 27  2  0  0  0  0
 36 32  1  0  0  0  0
 37 33  1  0  0  0  0
 37 38  1  0  0  0  0
 38 40  1  0  0  0  0
 39 37  2  0  0  0  0
 41 38  1  0  0  0  0
 42 43  1  0  0  0  0
 44 45  1  6  0  0  0
 44 42  1  0  0  0  0
 44 57  1  0  0  0  0
 46 51  1  0  0  0  0
 46 44  1  0  0  0  0
 47 46  2  0  0  0  0
 48 49  2  0  0  0  0
 48 47  1  0  0  0  0
 49 50  1  0  0  0  0
 50 56  1  0  0  0  0
 50 51  2  0  0  0  0
 51 52  1  0  0  0  0
 53 47  1  0  0  0  0
 54 48  1  0  0  0  0
 55 49  1  0  0  0  0
 57 60  1  0  0  0  0
 57 58  1  0  0  0  0
 59 57  1  0  0  0  0
M  END
>  <MODEL>
22

>  <REMARK>
 VINA RESULT:    -8.125      3.723      5.437
 INTER + INTRA:         -11.796
 INTER:                 -11.123
 INTRA:                  -0.673
 UNBOUND:                -0.109
  Name = 
  8 active torsions:
  status: ('A' for Active; 'I' for Inactive)
    1  A    between atoms: C_1  and  C_2
    2  A    between atoms: C_2  and  N_3
    3  A    between atoms: C_2  and  C_28
    4  A    between atoms: N_3  and  C_4
    5  A    between atoms: C_12  and  N_13
    6  A    between atoms: N_16  and  C_17
    7  A    between atoms: C_17  and  C_18
    8  A    between atoms: C_24  and  C_25
                            x       y       z     vdW  Elec       q    Type
                         _______ _______ _______ _____ _____    ______ ____

>  <TORSDO>
F 8

$$$$
=
 OpenBabel07192307433D

 60 63  0  0  1  0  0  0  0  0999 V2000
   -0.3120   13.5390   19.6170 C   0  0  0  0  0  0  0  0  0  0  0  0
    0.9310   12.9130   19.8520 C   0  0  0  0  0  0  0  0  0  0  0  0
    1.1880   11.5990   19.4470 C   0  0  0  0  0  0  0  0  0  0  0  0
    0.2020   10.9160   18.7610 C   0  0  0  0  0  0  0  0  0  0  0  0
   -1.0160   11.5350   18.4750 C   0  0  0  0  0  0  0  0  0  0  0  0
   -1.2780   12.8370   18.8820 C   0  0  0  0  0  0  0  0  0  0  0  0
   -1.9430   10.5910   17.7680 C   0  0  0  0  0  0  0  0  0  0  0  0
   -0.9640    9.5150   17.2750 C   0  0  0  0  0  0  0  0  0  0  0  0
    0.2050    9.4930   18.2820 C   0  0  1  0  0  0  0  0  0  0  0  0
    1.7160   13.4540   20.3770 H   0  0  0  0  0  0  0  0  0  0  0  0
    2.1390   11.1340   19.6790 H   0  0  0  0  0  0  0  0  0  0  0  0
   -2.2360   13.2750   18.6350 H   0  0  0  0  0  0  0  0  0  0  0  0
   -2.4700   11.0660   16.9330 H   0  0  0  0  0  0  0  0  0  0  0  0
   -2.6660   10.1750   18.4780 H   0  0  0  0  0  0  0  0  0  0  0  0
   -0.6030    9.7930   16.2740 H   0  0  0  0  0  0  0  0  0  0  0  0
   -1.4410    8.5330   17.1770 H   0  0  0  0  0  0  0  0  0  0  0  0
   -0.0240    8.8190   19.1180 H   0  0  0  0  0  0  0  0  0  0  0  0
    1.4550    9.1160   17.6660 N   0  0  0  0  0  0  0  0  0  0  0  0
    2.2420    8.1520   18.2380 C   0  0  0  0  0  0  0  0  0  0  0  0
    2.0110    7.6260   19.3170 O   0  0  0  0  0  0  0  0  0  0  0  0
    3.3270    7.8660   17.4480 N   0  0  0  0  0  0  0  0  0  0  0  0
    1.4810    9.1630   16.6580 H   0  0  0  0  0  0  0  0  0  0  0  0
    3.6420    8.6540   16.9010 H   0  0  0  0  0  0  0  0  0  0  0  0
    4.3770    6.9860   17.9310 C   0  0  0  0  0  0  0  0  0  0  0  0
    4.0370    6.5390   18.8700 H   0  0  0  0  0  0  0  0  0  0  0  0
    5.2380    7.6190   18.1780 H   0  0  0  0  0  0  0  0  0  0  0  0
    4.8190    5.9690   16.9070 C   0  0  0  0  0  0  0  0  0  0  0  0
    5.2600    6.4100   15.6430 C   0  0  0  0  0  0  0  0  0  0  0  0
    5.7210    5.4980   14.6910 C   0  0  0  0  0  0  0  0  0  0  0  0
    5.7590    4.1410   14.9950 C   0  0  0  0  0  0  0  0  0  0  0  0
    6.2090    3.2740   14.0790 F   0  0  0  0  0  0  0  0  0  0  0  0
    5.3340    3.6750   16.2290 C   0  0  0  0  0  0  0  0  0  0  0  0
    4.8520    4.5870   17.1750 C   0  0  0  0  0  0  0  0  0  0  0  0
    5.2430    7.4700   15.3960 H   0  0  0  0  0  0  0  0  0  0  0  0
    6.0560    5.8370   13.7140 H   0  0  0  0  0  0  0  0  0  0  0  0
    5.3700    2.6100   16.4450 H   0  0  0  0  0  0  0  0  0  0  0  0
    4.3900    4.0200   18.4540 C   0  0  0  0  0  0  0  0  0  0  0  0
    5.3690    3.5140   19.2540 N   0  0  0  0  0  0  0  0  0  0  0  0
    3.2060    4.0370   18.7630 O   0  0  0  0  0  0  0  0  0  0  0  0
    6.3110    3.3320   18.8970 H   0  0  0  0  0  0  0  0  0  0  0  0
    5.0950    3.0220   20.0890 H   0  0  0  0  0  0  0  0  0  0  0  0
   -0.4560   14.8660   20.0480 N   0  0  0  0  0  0  0  0  0  0  0  0
    0.2610   15.4480   19.6140 H   0  0  0  0  0  0  0  0  0  0  0  0
   -0.6160   15.1820   21.4750 C   0  0  1  0  0  0  0  0  0  0  0  0
   -1.0640   16.1760   21.5970 H   0  0  0  0  0  0  0  0  0  0  0  0
   -1.5500   14.1650   22.1100 C   0  0  0  0  0  0  0  0  0  0  0  0
   -1.0710   13.1090   22.9100 C   0  0  0  0  0  0  0  0  0  0  0  0
   -1.9540   12.1850   23.4770 C   0  0  0  0  0  0  0  0  0  0  0  0
   -3.3280   12.2980   23.2550 C   0  0  0  0  0  0  0  0  0  0  0  0
   -3.8170   13.3410   22.4710 C   0  0  0  0  0  0  0  0  0  0  0  0
   -2.9320   14.2630   21.9120 C   0  0  0  0  0  0  0  0  0  0  0  0
   -3.4380   15.2670   21.1800 F   0  0  0  0  0  0  0  0  0  0  0  0
   -0.0010   13.0040   23.0920 H   0  0  0  0  0  0  0  0  0  0  0  0
   -1.5690   11.3720   24.0910 H   0  0  0  0  0  0  0  0  0  0  0  0
   -4.0140   11.5780   23.6970 H   0  0  0  0  0  0  0  0  0  0  0  0
   -4.8820   13.4470   22.2900 H   0  0  0  0  0  0  0  0  0  0  0  0
    0.7500   15.1570   22.1700 C   0  0  0  0  0  0  0  0  0  0  0  0
    1.5620   15.0890   21.4380 H   0  0  0  0  0  0  0  0  0  0  0  0
    0.9170   16.0560   22.7720 H   0  0  0  0  0  0  0  0  0  0  0  0
    0.8360   14.2990   22.8450 H   0  0  0  0  0  0  0  0  0  0  0  0
  1  2  1  0  0  0  0
  1 42  1  0  0  0  0
  2 10  1  0  0  0  0
  3 11  1  0  0  0  0
  3  2  2  0  0  0  0
  4  3  1  0  0  0  0
  5  4  2  0  0  0  0
  5  6  1  0  0  0  0
  6  1  2  0  0  0  0
  7  5  1  0  0  0  0
  7 14  1  0  0  0  0
  8  7  1  0  0  0  0
  8  9  1  0  0  0  0
  9  4  1  0  0  0  0
  9 17  1  1  0  0  0
 12  6  1  0  0  0  0
 13  7  1  0  0  0  0
 15  8  1  0  0  0  0
 16  8  1  0  0  0  0
 18 19  1  0  0  0  0
 18  9  1  0  0  0  0
 19 20  2  0  0  0  0
 21 24  1  0  0  0  0
 21 19  1  0  0  0  0
 22 18  1  0  0  0  0
 23 21  1  0  0  0  0
 24 26  1  0  0  0  0
 24 25  1  0  0  0  0
 27 33  1  0  0  0  0
 27 24  1  0  0  0  0
 28 27  2  0  0  0  0
 29 30  2  0  0  0  0
 29 28  1  0  0  0  0
 30 32  1  0  0  0  0
 31 30  1  0  0  0  0
 32 36  1  0  0  0  0
 32 33  2  0  0  0  0
 33 37  1  0  0  0  0
 34 28  1  0  0  0  0
 35 29  1  0  0  0  0
 37 39  2  0  0  0  0
 37 38  1  0  0  0  0
 38 41  1  0  0  0  0
 40 38  1  0  0  0  0
 42 44  1  0  0  0  0
 43 42  1  0  0  0  0
 44 45  1  1  0  0  0
 44 46  1  0  0  0  0
 44 57  1  0  0  0  0
 46 47  1  0  0  0  0
 47 53  1  0  0  0  0
 47 48  2  0  0  0  0
 48 54  1  0  0  0  0
 49 48  1  0  0  0  0
 49 55  1  0  0  0  0
 50 49  2  0  0  0  0
 51 46  2  0  0  0  0
 51 50  1  0  0  0  0
 52 51  1  0  0  0  0
 56 50  1  0  0  0  0
 57 59  1  0  0  0  0
 57 60  1  0  0  0  0
 58 57  1  0  0  0  0
M  END
>  <MODEL>
23

>  <REMARK>
 VINA RESULT:    -8.122      2.950      4.322
 INTER + INTRA:         -11.792
 INTER:                 -10.671
 INTRA:                  -1.121
 UNBOUND:                -0.109
  Name = 
  8 active torsions:
  status: ('A' for Active; 'I' for Inactive)
    1  A    between atoms: C_1  and  C_2
    2  A    between atoms: C_2  and  N_3
    3  A    between atoms: C_2  and  C_28
    4  A    between atoms: N_3  and  C_4
    5  A    between atoms: C_12  and  N_13
    6  A    between atoms: N_16  and  C_17
    7  A    between atoms: C_17  and  C_18
    8  A    between atoms: C_24  and  C_25
                            x       y       z     vdW  Elec       q    Type
                         _______ _______ _______ _____ _____    ______ ____

>  <TORSDO>
F 8

$$$$
=
 OpenBabel07192307433D

 60 63  0  0  1  0  0  0  0  0999 V2000
   -0.5890   10.9070   21.5660 C   0  0  0  0  0  0  0  0  0  0  0  0
    0.0340    9.8270   22.2300 C   0  0  0  0  0  0  0  0  0  0  0  0
    0.7090    8.8190   21.5330 C   0  0  0  0  0  0  0  0  0  0  0  0
    0.7980    8.9150   20.1580 C   0  0  0  0  0  0  0  0  0  0  0  0
    0.2320   10.0010   19.4870 C   0  0  0  0  0  0  0  0  0  0  0  0
   -0.4460   11.0000   20.1750 C   0  0  0  0  0  0  0  0  0  0  0  0
    0.4110    9.8670   18.0050 C   0  0  0  0  0  0  0  0  0  0  0  0
    1.5360    8.8240   17.9270 C   0  0  0  0  0  0  0  0  0  0  0  0
    1.4030    7.9430   19.1860 C   0  0  1  0  0  0  0  0  0  0  0  0
   -0.0200    9.7580   23.3140 H   0  0  0  0  0  0  0  0  0  0  0  0
    1.1420    7.9830   22.0700 H   0  0  0  0  0  0  0  0  0  0  0  0
   -0.8660   11.8230   19.6120 H   0  0  0  0  0  0  0  0  0  0  0  0
    0.7060   10.8100   17.5310 H   0  0  0  0  0  0  0  0  0  0  0  0
   -0.5110    9.4920   17.5480 H   0  0  0  0  0  0  0  0  0  0  0  0
    2.5050    9.3440   17.9230 H   0  0  0  0  0  0  0  0  0  0  0  0
    1.4910    8.2330   17.0050 H   0  0  0  0  0  0  0  0  0  0  0  0
    0.7030    7.1170   19.0020 H   0  0  0  0  0  0  0  0  0  0  0  0
    2.6750    7.4280   19.6350 N   0  0  0  0  0  0  0  0  0  0  0  0
    3.1610    6.2530   19.1250 C   0  0  0  0  0  0  0  0  0  0  0  0
    2.5440    5.5270   18.3600 O   0  0  0  0  0  0  0  0  0  0  0  0
    4.4230    5.9930   19.5980 N   0  0  0  0  0  0  0  0  0  0  0  0
    3.3680    8.1180   19.8810 H   0  0  0  0  0  0  0  0  0  0  0  0
    4.5860    6.3610   20.5240 H   0  0  0  0  0  0  0  0  0  0  0  0
    5.0680    4.7230   19.3120 C   0  0  0  0  0  0  0  0  0  0  0  0
    4.3370    3.9270   19.4810 H   0  0  0  0  0  0  0  0  0  0  0  0
    5.8580    4.5890   20.0610 H   0  0  0  0  0  0  0  0  0  0  0  0
    5.7030    4.6750   17.9440 C   0  0  0  0  0  0  0  0  0  0  0  0
    5.0390    4.0010   16.8980 C   0  0  0  0  0  0  0  0  0  0  0  0
    5.5760    3.9800   15.6090 C   0  0  0  0  0  0  0  0  0  0  0  0
    6.7720    4.6400   15.3480 C   0  0  0  0  0  0  0  0  0  0  0  0
    7.2770    4.6200   14.1080 F   0  0  0  0  0  0  0  0  0  0  0  0
    7.4500    5.3120   16.3530 C   0  0  0  0  0  0  0  0  0  0  0  0
    6.9230    5.3160   17.6480 C   0  0  0  0  0  0  0  0  0  0  0  0
    4.0980    3.4890   17.0880 H   0  0  0  0  0  0  0  0  0  0  0  0
    5.0670    3.4560   14.8050 H   0  0  0  0  0  0  0  0  0  0  0  0
    8.3850    5.8200   16.1270 H   0  0  0  0  0  0  0  0  0  0  0  0
    7.7090    6.0240   18.6730 C   0  0  0  0  0  0  0  0  0  0  0  0
    8.1010    5.2650   19.7340 N   0  0  0  0  0  0  0  0  0  0  0  0
    7.9990    7.2060   18.5460 O   0  0  0  0  0  0  0  0  0  0  0  0
    7.6870    4.3460   19.9150 H   0  0  0  0  0  0  0  0  0  0  0  0
    8.5490    5.7250   20.5100 H   0  0  0  0  0  0  0  0  0  0  0  0
   -1.2220   11.8730   22.3630 N   0  0  0  0  0  0  0  0  0  0  0  0
   -2.1770   12.0160   22.0360 H   0  0  0  0  0  0  0  0  0  0  0  0
   -0.5580   13.1490   22.6700 C   0  0  1  0  0  0  0  0  0  0  0  0
    0.4070   12.9680   23.1590 H   0  0  0  0  0  0  0  0  0  0  0  0
   -0.2930   13.8980   21.3730 C   0  0  0  0  0  0  0  0  0  0  0  0
   -1.3160   14.5720   20.6790 C   0  0  0  0  0  0  0  0  0  0  0  0
   -1.0440   15.2500   19.4860 C   0  0  0  0  0  0  0  0  0  0  0  0
    0.2510   15.2630   18.9660 C   0  0  0  0  0  0  0  0  0  0  0  0
    1.2750   14.6050   19.6450 C   0  0  0  0  0  0  0  0  0  0  0  0
    0.9990   13.9360   20.8370 C   0  0  0  0  0  0  0  0  0  0  0  0
    2.0110   13.3310   21.4770 F   0  0  0  0  0  0  0  0  0  0  0  0
   -2.3350   14.5700   21.0700 H   0  0  0  0  0  0  0  0  0  0  0  0
   -1.8460   15.7640   18.9580 H   0  0  0  0  0  0  0  0  0  0  0  0
    0.4620   15.7900   18.0370 H   0  0  0  0  0  0  0  0  0  0  0  0
    2.2900   14.6070   19.2570 H   0  0  0  0  0  0  0  0  0  0  0  0
   -1.4450   13.9870   23.5970 C   0  0  0  0  0  0  0  0  0  0  0  0
   -1.3410   13.6640   24.6380 H   0  0  0  0  0  0  0  0  0  0  0  0
   -1.1910   15.0510   23.5500 H   0  0  0  0  0  0  0  0  0  0  0  0
   -2.5010   13.8980   23.3230 H   0  0  0  0  0  0  0  0  0  0  0  0
  1  2  1  0  0  0  0
  1 42  1  0  0  0  0
  2 10  1  0  0  0  0
  3 11  1  0  0  0  0
  3  2  2  0  0  0  0
  4  3  1  0  0  0  0
  5  4  2  0  0  0  0
  5  6  1  0  0  0  0
  6  1  2  0  0  0  0
  7  5  1  0  0  0  0
  8  7  1  0  0  0  0
  8  9  1  0  0  0  0
  9 17  1  6  0  0  0
  9 18  1  0  0  0  0
  9  4  1  0  0  0  0
 12  6  1  0  0  0  0
 13  7  1  0  0  0  0
 14  7  1  0  0  0  0
 15  8  1  0  0  0  0
 16  8  1  0  0  0  0
 18 22  1  0  0  0  0
 19 21  1  0  0  0  0
 19 18  1  0  0  0  0
 20 19  2  0  0  0  0
 21 23  1  0  0  0  0
 24 25  1  0  0  0  0
 24 21  1  0  0  0  0
 24 26  1  0  0  0  0
 27 24  1  0  0  0  0
 28 34  1  0  0  0  0
 28 27  2  0  0  0  0
 29 28  1  0  0  0  0
 30 29  2  0  0  0  0
 30 32  1  0  0  0  0
 31 30  1  0  0  0  0
 32 33  2  0  0  0  0
 33 27  1  0  0  0  0
 33 37  1  0  0  0  0
 35 29  1  0  0  0  0
 36 32  1  0  0  0  0
 37 38  1  0  0  0  0
 38 40  1  0  0  0  0
 38 41  1  0  0  0  0
 39 37  2  0  0  0  0
 42 44  1  0  0  0  0
 43 42  1  0  0  0  0
 44 45  1  1  0  0  0
 44 57  1  0  0  0  0
 46 44  1  0  0  0  0
 47 53  1  0  0  0  0
 47 46  2  0  0  0  0
 48 47  1  0  0  0  0
 49 48  2  0  0  0  0
 49 50  1  0  0  0  0
 50 51  2  0  0  0  0
 51 46  1  0  0  0  0
 51 52  1  0  0  0  0
 54 48  1  0  0  0  0
 55 49  1  0  0  0  0
 56 50  1  0  0  0  0
 57 58  1  0  0  0  0
 59 57  1  0  0  0  0
 60 57  1  0  0  0  0
M  END
>  <MODEL>
24

>  <REMARK>
 VINA RESULT:    -8.118      2.511      3.728
 INTER + INTRA:         -11.786
 INTER:                 -11.172
 INTRA:                  -0.614
 UNBOUND:                -0.109
  Name = 
  8 active torsions:
  status: ('A' for Active; 'I' for Inactive)
    1  A    between atoms: C_1  and  C_2
    2  A    between atoms: C_2  and  N_3
    3  A    between atoms: C_2  and  C_28
    4  A    between atoms: N_3  and  C_4
    5  A    between atoms: C_12  and  N_13
    6  A    between atoms: N_16  and  C_17
    7  A    between atoms: C_17  and  C_18
    8  A    between atoms: C_24  and  C_25
                            x       y       z     vdW  Elec       q    Type
                         _______ _______ _______ _____ _____    ______ ____

>  <TORSDO>
F 8

$$$$
=
 OpenBabel07192307433D

 60 63  0  0  1  0  0  0  0  0999 V2000
    2.8310    7.1040   18.1070 C   0  0  0  0  0  0  0  0  0  0  0  0
    2.3690    8.2910   17.5010 C   0  0  0  0  0  0  0  0  0  0  0  0
    1.5410    9.1950   18.1760 C   0  0  0  0  0  0  0  0  0  0  0  0
    1.2070    8.9270   19.4900 C   0  0  0  0  0  0  0  0  0  0  0  0
    1.6950    7.7830   20.1230 C   0  0  0  0  0  0  0  0  0  0  0  0
    2.5100    6.8790   19.4530 C   0  0  0  0  0  0  0  0  0  0  0  0
    1.1640    7.6770   21.5210 C   0  0  0  0  0  0  0  0  0  0  0  0
    0.6870    9.1160   21.7760 C   0  0  0  0  0  0  0  0  0  0  0  0
    0.2920    9.6940   20.4010 C   0  0  1  0  0  0  0  0  0  0  0  0
    2.6450    8.5140   16.4720 H   0  0  0  0  0  0  0  0  0  0  0  0
    1.1710   10.0780   17.6680 H   0  0  0  0  0  0  0  0  0  0  0  0
    2.8660    6.0080   19.9870 H   0  0  0  0  0  0  0  0  0  0  0  0
    1.9340    7.3780   22.2410 H   0  0  0  0  0  0  0  0  0  0  0  0
    0.3280    6.9710   21.5530 H   0  0  0  0  0  0  0  0  0  0  0  0
    1.5150    9.6940   22.2110 H   0  0  0  0  0  0  0  0  0  0  0  0
   -0.1400    9.1580   22.4930 H   0  0  0  0  0  0  0  0  0  0  0  0
   -0.7530    9.4500   20.1700 H   0  0  0  0  0  0  0  0  0  0  0  0
    0.5000   11.1210   20.3240 N   0  0  0  0  0  0  0  0  0  0  0  0
   -0.5320   11.9830   20.5890 C   0  0  0  0  0  0  0  0  0  0  0  0
   -1.6830   11.6330   20.8060 O   0  0  0  0  0  0  0  0  0  0  0  0
   -0.1060   13.2870   20.5660 N   0  0  0  0  0  0  0  0  0  0  0  0
    1.4200   11.4470   20.5800 H   0  0  0  0  0  0  0  0  0  0  0  0
    0.6630   13.4440   19.9300 H   0  0  0  0  0  0  0  0  0  0  0  0
   -1.0620   14.3750   20.6660 C   0  0  0  0  0  0  0  0  0  0  0  0
   -1.8200   14.2300   19.8900 H   0  0  0  0  0  0  0  0  0  0  0  0
   -0.5260   15.2980   20.4150 H   0  0  0  0  0  0  0  0  0  0  0  0
   -1.6430   14.5300   22.0510 C   0  0  0  0  0  0  0  0  0  0  0  0
   -0.7780   14.7600   23.1400 C   0  0  0  0  0  0  0  0  0  0  0  0
   -1.2870   14.9570   24.4260 C   0  0  0  0  0  0  0  0  0  0  0  0
   -2.6620   14.9400   24.6340 C   0  0  0  0  0  0  0  0  0  0  0  0
   -3.1420   15.1360   25.8680 F   0  0  0  0  0  0  0  0  0  0  0  0
   -3.5400   14.7190   23.5850 C   0  0  0  0  0  0  0  0  0  0  0  0
   -3.0290   14.5010   22.3010 C   0  0  0  0  0  0  0  0  0  0  0  0
    0.2990   14.7840   22.9870 H   0  0  0  0  0  0  0  0  0  0  0  0
   -0.6200   15.1280   25.2660 H   0  0  0  0  0  0  0  0  0  0  0  0
   -4.6110   14.7080   23.7710 H   0  0  0  0  0  0  0  0  0  0  0  0
   -4.0160   14.2430   21.2380 C   0  0  0  0  0  0  0  0  0  0  0  0
   -4.3310   12.9320   21.0420 N   0  0  0  0  0  0  0  0  0  0  0  0
   -4.5230   15.1600   20.6080 O   0  0  0  0  0  0  0  0  0  0  0  0
   -3.7590   12.1800   21.4370 H   0  0  0  0  0  0  0  0  0  0  0  0
   -4.9200   12.6950   20.2600 H   0  0  0  0  0  0  0  0  0  0  0  0
    3.6720    6.2780   17.3460 N   0  0  0  0  0  0  0  0  0  0  0  0
    3.8020    5.3860   17.8230 H   0  0  0  0  0  0  0  0  0  0  0  0
    4.9400    6.7890   16.8030 C   0  0  1  0  0  0  0  0  0  0  0  0
    4.8990    7.8820   16.7060 H   0  0  0  0  0  0  0  0  0  0  0  0
    6.0680    6.4460   17.7620 C   0  0  0  0  0  0  0  0  0  0  0  0
    6.0050    5.3310   18.6200 C   0  0  0  0  0  0  0  0  0  0  0  0
    7.0570    5.0410   19.4950 C   0  0  0  0  0  0  0  0  0  0  0  0
    8.1860    5.8610   19.5300 C   0  0  0  0  0  0  0  0  0  0  0  0
    8.2660    6.9640   18.6830 C   0  0  0  0  0  0  0  0  0  0  0  0
    7.2170    7.2440   17.8080 C   0  0  0  0  0  0  0  0  0  0  0  0
    7.3350    8.3020   16.9910 F   0  0  0  0  0  0  0  0  0  0  0  0
    5.1280    4.6810   18.6080 H   0  0  0  0  0  0  0  0  0  0  0  0
    6.9920    4.1780   20.1550 H   0  0  0  0  0  0  0  0  0  0  0  0
    9.0050    5.6340   20.2120 H   0  0  0  0  0  0  0  0  0  0  0  0
    9.1390    7.6100   18.6940 H   0  0  0  0  0  0  0  0  0  0  0  0
    5.2040    6.1700   15.4270 C   0  0  0  0  0  0  0  0  0  0  0  0
    4.6780    5.2150   15.3180 H   0  0  0  0  0  0  0  0  0  0  0  0
    4.8750    6.8270   14.6150 H   0  0  0  0  0  0  0  0  0  0  0  0
    6.2720    5.9830   15.2730 H   0  0  0  0  0  0  0  0  0  0  0  0
  1  6  1  0  0  0  0
  2  1  2  0  0  0  0
  2  3  1  0  0  0  0
  3  4  2  0  0  0  0
  4  5  1  0  0  0  0
  4  9  1  0  0  0  0
  5  7  1  0  0  0  0
  6 12  1  0  0  0  0
  6  5  2  0  0  0  0
  7 14  1  0  0  0  0
  7  8  1  0  0  0  0
  7 13  1  0  0  0  0
  8 15  1  0  0  0  0
  8 16  1  0  0  0  0
  9 17  1  6  0  0  0
  9  8  1  0  0  0  0
 10  2  1  0  0  0  0
 11  3  1  0  0  0  0
 18  9  1  0  0  0  0
 18 22  1  0  0  0  0
 18 19  1  0  0  0  0
 19 20  2  0  0  0  0
 21 19  1  0  0  0  0
 21 24  1  0  0  0  0
 23 21  1  0  0  0  0
 24 27  1  0  0  0  0
 25 24  1  0  0  0  0
 26 24  1  0  0  0  0
 27 33  2  0  0  0  0
 27 28  1  0  0  0  0
 28 29  2  0  0  0  0
 29 30  1  0  0  0  0
 29 35  1  0  0  0  0
 30 31  1  0  0  0  0
 32 36  1  0  0  0  0
 32 30  2  0  0  0  0
 33 32  1  0  0  0  0
 34 28  1  0  0  0  0
 37 33  1  0  0  0  0
 38 37  1  0  0  0  0
 38 40  1  0  0  0  0
 39 37  2  0  0  0  0
 41 38  1  0  0  0  0
 42 43  1  0  0  0  0
 42  1  1  0  0  0  0
 44 45  1  6  0  0  0
 44 42  1  0  0  0  0
 44 46  1  0  0  0  0
 46 51  2  0  0  0  0
 46 47  1  0  0  0  0
 47 48  2  0  0  0  0
 48 49  1  0  0  0  0
 48 54  1  0  0  0  0
 49 55  1  0  0  0  0
 50 56  1  0  0  0  0
 50 49  2  0  0  0  0
 51 50  1  0  0  0  0
 52 51  1  0  0  0  0
 53 47  1  0  0  0  0
 57 44  1  0  0  0  0
 58 57  1  0  0  0  0
 59 57  1  0  0  0  0
 60 57  1  0  0  0  0
M  END
>  <MODEL>
25

>  <REMARK>
 VINA RESULT:    -8.108      4.598     11.426
 INTER + INTRA:         -11.772
 INTER:                 -10.205
 INTRA:                  -1.566
 UNBOUND:                -0.109
  Name = 
  8 active torsions:
  status: ('A' for Active; 'I' for Inactive)
    1  A    between atoms: C_1  and  C_2
    2  A    between atoms: C_2  and  N_3
    3  A    between atoms: C_2  and  C_28
    4  A    between atoms: N_3  and  C_4
    5  A    between atoms: C_12  and  N_13
    6  A    between atoms: N_16  and  C_17
    7  A    between atoms: C_17  and  C_18
    8  A    between atoms: C_24  and  C_25
                            x       y       z     vdW  Elec       q    Type
                         _______ _______ _______ _____ _____    ______ ____

>  <TORSDO>
F 8

$$$$
=
 OpenBabel07192307433D

 60 63  0  0  1  0  0  0  0  0999 V2000
    1.3950    6.4080   20.4270 C   0  0  0  0  0  0  0  0  0  0  0  0
    2.7370    6.6460   20.0610 C   0  0  0  0  0  0  0  0  0  0  0  0
    3.6400    5.6020   19.8320 C   0  0  0  0  0  0  0  0  0  0  0  0
    3.1820    4.3020   19.9300 C   0  0  0  0  0  0  0  0  0  0  0  0
    1.8460    4.0460   20.2430 C   0  0  0  0  0  0  0  0  0  0  0  0
    0.9490    5.0800   20.4780 C   0  0  0  0  0  0  0  0  0  0  0  0
    1.5930    2.5710   20.3410 C   0  0  0  0  0  0  0  0  0  0  0  0
    2.8160    2.0020   19.6040 C   0  0  0  0  0  0  0  0  0  0  0  0
    3.9570    3.0220   19.7990 C   0  0  1  0  0  0  0  0  0  0  0  0
    3.0960    7.6690   19.9650 H   0  0  0  0  0  0  0  0  0  0  0  0
    4.6740    5.8200   19.5910 H   0  0  0  0  0  0  0  0  0  0  0  0
   -0.0780    4.8310   20.7150 H   0  0  0  0  0  0  0  0  0  0  0  0
    0.6580    2.2720   19.8550 H   0  0  0  0  0  0  0  0  0  0  0  0
    1.5840    2.2620   21.3920 H   0  0  0  0  0  0  0  0  0  0  0  0
    2.5720    1.8990   18.5370 H   0  0  0  0  0  0  0  0  0  0  0  0
    3.0900    1.0040   19.9640 H   0  0  0  0  0  0  0  0  0  0  0  0
    4.4970    2.8170   20.7330 H   0  0  0  0  0  0  0  0  0  0  0  0
    4.8760    3.0400   18.6860 N   0  0  0  0  0  0  0  0  0  0  0  0
    4.4040    3.1620   17.4050 C   0  0  0  0  0  0  0  0  0  0  0  0
    3.2190    3.1660   17.1050 O   0  0  0  0  0  0  0  0  0  0  0  0
    5.4350    3.2640   16.5060 N   0  0  0  0  0  0  0  0  0  0  0  0
    5.7750    3.4600   18.8630 H   0  0  0  0  0  0  0  0  0  0  0  0
    6.2690    2.7740   16.7970 H   0  0  0  0  0  0  0  0  0  0  0  0
    5.1710    3.2460   15.0780 C   0  0  0  0  0  0  0  0  0  0  0  0
    4.1310    3.5480   14.9240 H   0  0  0  0  0  0  0  0  0  0  0  0
    5.2470    2.2020   14.7510 H   0  0  0  0  0  0  0  0  0  0  0  0
    6.1580    4.0620   14.2800 C   0  0  0  0  0  0  0  0  0  0  0  0
    6.9950    4.9780   14.9480 C   0  0  0  0  0  0  0  0  0  0  0  0
    7.9530    5.7130   14.2450 C   0  0  0  0  0  0  0  0  0  0  0  0
    8.0930    5.5320   12.8730 C   0  0  0  0  0  0  0  0  0  0  0  0
    9.0170    6.2350   12.2080 F   0  0  0  0  0  0  0  0  0  0  0  0
    7.2850    4.6390   12.1860 C   0  0  0  0  0  0  0  0  0  0  0  0
    6.3130    3.9180   12.8870 C   0  0  0  0  0  0  0  0  0  0  0  0
    6.9020    5.1220   16.0230 H   0  0  0  0  0  0  0  0  0  0  0  0
    8.5950    6.4230   14.7590 H   0  0  0  0  0  0  0  0  0  0  0  0
    7.4100    4.5140   11.1130 H   0  0  0  0  0  0  0  0  0  0  0  0
    5.4710    3.0090   12.0900 C   0  0  0  0  0  0  0  0  0  0  0  0
    6.0440    1.8150   11.7710 N   0  0  0  0  0  0  0  0  0  0  0  0
    4.3310    3.3170   11.7710 O   0  0  0  0  0  0  0  0  0  0  0  0
    7.0510    1.6610   11.8750 H   0  0  0  0  0  0  0  0  0  0  0  0
    5.5510    1.2030   11.1400 H   0  0  0  0  0  0  0  0  0  0  0  0
    0.5690    7.5270   20.6130 N   0  0  0  0  0  0  0  0  0  0  0  0
   -0.1730    7.5270   19.9130 H   0  0  0  0  0  0  0  0  0  0  0  0
    1.1480    8.8680   20.7860 C   0  0  1  0  0  0  0  0  0  0  0  0
    2.1310    8.9240   20.3030 H   0  0  0  0  0  0  0  0  0  0  0  0
    0.2400    9.8930   20.1230 C   0  0  0  0  0  0  0  0  0  0  0  0
   -0.5250   10.8070   20.8730 C   0  0  0  0  0  0  0  0  0  0  0  0
   -1.3550   11.7350   20.2360 C   0  0  0  0  0  0  0  0  0  0  0  0
   -1.4350   11.7650   18.8430 C   0  0  0  0  0  0  0  0  0  0  0  0
   -0.6790   10.8710   18.0880 C   0  0  0  0  0  0  0  0  0  0  0  0
    0.1500    9.9510   18.7280 C   0  0  0  0  0  0  0  0  0  0  0  0
    0.8810    9.1180   17.9710 F   0  0  0  0  0  0  0  0  0  0  0  0
   -0.4760   10.7960   21.9630 H   0  0  0  0  0  0  0  0  0  0  0  0
   -1.9440   12.4340   20.8280 H   0  0  0  0  0  0  0  0  0  0  0  0
   -2.0820   12.4890   18.3480 H   0  0  0  0  0  0  0  0  0  0  0  0
   -0.7270   10.8820   17.0030 H   0  0  0  0  0  0  0  0  0  0  0  0
    1.3010    9.1800   22.2790 C   0  0  0  0  0  0  0  0  0  0  0  0
    1.2460    8.2650   22.8790 H   0  0  0  0  0  0  0  0  0  0  0  0
    2.2570    9.6660   22.4970 H   0  0  0  0  0  0  0  0  0  0  0  0
    0.5120    9.8550   22.6270 H   0  0  0  0  0  0  0  0  0  0  0  0
  1  6  1  0  0  0  0
  1 42  1  0  0  0  0
  2  1  2  0  0  0  0
  3  4  2  0  0  0  0
  3  2  1  0  0  0  0
  4  5  1  0  0  0  0
  5  7  1  0  0  0  0
  5  6  2  0  0  0  0
  6 12  1  0  0  0  0
  7 14  1  0  0  0  0
  8  9  1  0  0  0  0
  8 16  1  0  0  0  0
  8  7  1  0  0  0  0
  9  4  1  0  0  0  0
  9 17  1  1  0  0  0
 10  2  1  0  0  0  0
 11  3  1  0  0  0  0
 13  7  1  0  0  0  0
 15  8  1  0  0  0  0
 18 22  1  0  0  0  0
 18  9  1  0  0  0  0
 19 18  1  0  0  0  0
 20 19  2  0  0  0  0
 21 23  1  0  0  0  0
 21 19  1  0  0  0  0
 24 21  1  0  0  0  0
 25 24  1  0  0  0  0
 26 24  1  0  0  0  0
 27 28  1  0  0  0  0
 27 24  1  0  0  0  0
 28 34  1  0  0  0  0
 29 35  1  0  0  0  0
 29 28  2  0  0  0  0
 30 29  1  0  0  0  0
 31 30  1  0  0  0  0
 32 30  2  0  0  0  0
 32 33  1  0  0  0  0
 33 27  2  0  0  0  0
 36 32  1  0  0  0  0
 37 33  1  0  0  0  0
 38 40  1  0  0  0  0
 38 37  1  0  0  0  0
 39 37  2  0  0  0  0
 41 38  1  0  0  0  0
 42 44  1  0  0  0  0
 43 42  1  0  0  0  0
 44 45  1  6  0  0  0
 44 57  1  0  0  0  0
 46 44  1  0  0  0  0
 46 47  1  0  0  0  0
 47 53  1  0  0  0  0
 48 54  1  0  0  0  0
 48 47  2  0  0  0  0
 49 48  1  0  0  0  0
 50 51  1  0  0  0  0
 50 49  2  0  0  0  0
 51 46  2  0  0  0  0
 52 51  1  0  0  0  0
 55 49  1  0  0  0  0
 56 50  1  0  0  0  0
 57 59  1  0  0  0  0
 57 60  1  0  0  0  0
 57 58  1  0  0  0  0
M  END
>  <MODEL>
26

>  <REMARK>
 VINA RESULT:    -8.063      2.340      3.692
 INTER + INTRA:         -11.707
 INTER:                 -11.232
 INTRA:                  -0.475
 UNBOUND:                -0.109
  Name = 
  8 active torsions:
  status: ('A' for Active; 'I' for Inactive)
    1  A    between atoms: C_1  and  C_2
    2  A    between atoms: C_2  and  N_3
    3  A    between atoms: C_2  and  C_28
    4  A    between atoms: N_3  and  C_4
    5  A    between atoms: C_12  and  N_13
    6  A    between atoms: N_16  and  C_17
    7  A    between atoms: C_17  and  C_18
    8  A    between atoms: C_24  and  C_25
                            x       y       z     vdW  Elec       q    Type
                         _______ _______ _______ _____ _____    ______ ____

>  <TORSDO>
F 8

$$$$
=
 OpenBabel07192307433D

 60 63  0  0  1  0  0  0  0  0999 V2000
    2.7100    5.7180   19.5460 C   0  0  0  0  0  0  0  0  0  0  0  0
    1.9860    6.1940   20.6600 C   0  0  0  0  0  0  0  0  0  0  0  0
    1.4680    7.4930   20.7080 C   0  0  0  0  0  0  0  0  0  0  0  0
    1.6430    8.3120   19.6090 C   0  0  0  0  0  0  0  0  0  0  0  0
    2.3140    7.8430   18.4780 C   0  0  0  0  0  0  0  0  0  0  0  0
    2.8350    6.5560   18.4300 C   0  0  0  0  0  0  0  0  0  0  0  0
    2.4230    8.9170   17.4370 C   0  0  0  0  0  0  0  0  0  0  0  0
    1.3470    9.9080   17.9070 C   0  0  0  0  0  0  0  0  0  0  0  0
    1.2470    9.7510   19.4380 C   0  0  1  0  0  0  0  0  0  0  0  0
    1.8310    5.5450   21.5200 H   0  0  0  0  0  0  0  0  0  0  0  0
    0.9520    7.8410   21.5950 H   0  0  0  0  0  0  0  0  0  0  0  0
    3.3450    6.2370   17.5310 H   0  0  0  0  0  0  0  0  0  0  0  0
    2.2130    8.5460   16.4280 H   0  0  0  0  0  0  0  0  0  0  0  0
    3.4200    9.3690   17.4690 H   0  0  0  0  0  0  0  0  0  0  0  0
    0.3900    9.6460   17.4320 H   0  0  0  0  0  0  0  0  0  0  0  0
    1.5750   10.9380   17.6120 H   0  0  0  0  0  0  0  0  0  0  0  0
    1.9800   10.4000   19.9370 H   0  0  0  0  0  0  0  0  0  0  0  0
   -0.0810   10.0250   19.9340 N   0  0  0  0  0  0  0  0  0  0  0  0
   -0.6280   11.2720   19.7870 C   0  0  0  0  0  0  0  0  0  0  0  0
   -0.0300   12.2370   19.3330 O   0  0  0  0  0  0  0  0  0  0  0  0
   -1.9280   11.2970   20.2260 N   0  0  0  0  0  0  0  0  0  0  0  0
   -0.7310    9.2540   19.9010 H   0  0  0  0  0  0  0  0  0  0  0  0
   -2.1080   10.6440   20.9760 H   0  0  0  0  0  0  0  0  0  0  0  0
   -2.6520   12.5530   20.3090 C   0  0  0  0  0  0  0  0  0  0  0  0
   -3.6060   12.4270   19.7880 H   0  0  0  0  0  0  0  0  0  0  0  0
   -2.0770   13.2930   19.7390 H   0  0  0  0  0  0  0  0  0  0  0  0
   -2.8030   13.0600   21.7220 C   0  0  0  0  0  0  0  0  0  0  0  0
   -3.9040   12.6370   22.4940 C   0  0  0  0  0  0  0  0  0  0  0  0
   -4.0450   13.0490   23.8210 C   0  0  0  0  0  0  0  0  0  0  0  0
   -3.0850   13.8760   24.3940 C   0  0  0  0  0  0  0  0  0  0  0  0
   -3.2250   14.2610   25.6680 F   0  0  0  0  0  0  0  0  0  0  0  0
   -1.9900   14.3100   23.6630 C   0  0  0  0  0  0  0  0  0  0  0  0
   -1.8600   13.9130   22.3280 C   0  0  0  0  0  0  0  0  0  0  0  0
   -4.6570   11.9820   22.0590 H   0  0  0  0  0  0  0  0  0  0  0  0
   -4.8970   12.7270   24.4140 H   0  0  0  0  0  0  0  0  0  0  0  0
   -1.2520   14.9570   24.1300 H   0  0  0  0  0  0  0  0  0  0  0  0
   -0.6880   14.4350   21.6020 C   0  0  0  0  0  0  0  0  0  0  0  0
    0.5100   13.9050   21.9750 N   0  0  0  0  0  0  0  0  0  0  0  0
   -0.8110   15.2670   20.7140 O   0  0  0  0  0  0  0  0  0  0  0  0
    0.6110   13.3670   22.8400 H   0  0  0  0  0  0  0  0  0  0  0  0
    1.3500   14.3030   21.5840 H   0  0  0  0  0  0  0  0  0  0  0  0
    3.1670    4.3920   19.5950 N   0  0  0  0  0  0  0  0  0  0  0  0
    4.0090    4.3390   20.1680 H   0  0  0  0  0  0  0  0  0  0  0  0
    3.2990    3.5950   18.3660 C   0  0  1  0  0  0  0  0  0  0  0  0
    2.4440    3.7740   17.7020 H   0  0  0  0  0  0  0  0  0  0  0  0
    4.5610    4.0180   17.6300 C   0  0  0  0  0  0  0  0  0  0  0  0
    4.6080    4.1150   16.2270 C   0  0  0  0  0  0  0  0  0  0  0  0
    5.7840    4.5020   15.5760 C   0  0  0  0  0  0  0  0  0  0  0  0
    6.9310    4.7960   16.3150 C   0  0  0  0  0  0  0  0  0  0  0  0
    6.8970    4.7100   17.7060 C   0  0  0  0  0  0  0  0  0  0  0  0
    5.7210    4.3290   18.3490 C   0  0  0  0  0  0  0  0  0  0  0  0
    5.7160    4.2760   19.6900 F   0  0  0  0  0  0  0  0  0  0  0  0
    3.7220    3.8870   15.6320 H   0  0  0  0  0  0  0  0  0  0  0  0
    5.8070    4.5700   14.4900 H   0  0  0  0  0  0  0  0  0  0  0  0
    7.8460    5.0980   15.8080 H   0  0  0  0  0  0  0  0  0  0  0  0
    7.7790    4.9380   18.2980 H   0  0  0  0  0  0  0  0  0  0  0  0
    3.3610    2.1040   18.7170 C   0  0  0  0  0  0  0  0  0  0  0  0
    3.8750    1.9460   19.6710 H   0  0  0  0  0  0  0  0  0  0  0  0
    2.3620    1.6640   18.7990 H   0  0  0  0  0  0  0  0  0  0  0  0
    3.8980    1.5380   17.9490 H   0  0  0  0  0  0  0  0  0  0  0  0
  1 42  1  0  0  0  0
  1  2  1  0  0  0  0
  2  3  2  0  0  0  0
  2 10  1  0  0  0  0
  3 11  1  0  0  0  0
  4  3  1  0  0  0  0
  5  4  2  0  0  0  0
  6  5  1  0  0  0  0
  6  1  2  0  0  0  0
  7 14  1  0  0  0  0
  7  8  1  0  0  0  0
  7  5  1  0  0  0  0
  8  9  1  0  0  0  0
  9  4  1  0  0  0  0
  9 18  1  0  0  0  0
  9 17  1  1  0  0  0
 12  6  1  0  0  0  0
 13  7  1  0  0  0  0
 15  8  1  0  0  0  0
 16  8  1  0  0  0  0
 19 18  1  0  0  0  0
 19 21  1  0  0  0  0
 20 19  2  0  0  0  0
 21 24  1  0  0  0  0
 21 23  1  0  0  0  0
 22 18  1  0  0  0  0
 24 27  1  0  0  0  0
 25 24  1  0  0  0  0
 26 24  1  0  0  0  0
 27 33  2  0  0  0  0
 27 28  1  0  0  0  0
 28 29  2  0  0  0  0
 29 30  1  0  0  0  0
 29 35  1  0  0  0  0
 30 31  1  0  0  0  0
 32 36  1  0  0  0  0
 32 30  2  0  0  0  0
 33 32  1  0  0  0  0
 34 28  1  0  0  0  0
 37 38  1  0  0  0  0
 37 33  1  0  0  0  0
 38 40  1  0  0  0  0
 39 37  2  0  0  0  0
 41 38  1  0  0  0  0
 42 43  1  0  0  0  0
 44 45  1  6  0  0  0
 44 57  1  0  0  0  0
 44 42  1  0  0  0  0
 46 51  1  0  0  0  0
 46 44  1  0  0  0  0
 47 46  2  0  0  0  0
 48 47  1  0  0  0  0
 48 49  2  0  0  0  0
 49 50  1  0  0  0  0
 50 56  1  0  0  0  0
 50 51  2  0  0  0  0
 51 52  1  0  0  0  0
 53 47  1  0  0  0  0
 54 48  1  0  0  0  0
 55 49  1  0  0  0  0
 57 59  1  0  0  0  0
 57 58  1  0  0  0  0
 60 57  1  0  0  0  0
M  END
>  <MODEL>
27

>  <REMARK>
 VINA RESULT:    -8.028      4.166     11.073
 INTER + INTRA:         -11.658
 INTER:                 -11.079
 INTRA:                  -0.579
 UNBOUND:                -0.109
  Name = 
  8 active torsions:
  status: ('A' for Active; 'I' for Inactive)
    1  A    between atoms: C_1  and  C_2
    2  A    between atoms: C_2  and  N_3
    3  A    between atoms: C_2  and  C_28
    4  A    between atoms: N_3  and  C_4
    5  A    between atoms: C_12  and  N_13
    6  A    between atoms: N_16  and  C_17
    7  A    between atoms: C_17  and  C_18
    8  A    between atoms: C_24  and  C_25
                            x       y       z     vdW  Elec       q    Type
                         _______ _______ _______ _____ _____    ______ ____

>  <TORSDO>
F 8

$$$$
=
 OpenBabel07192307433D

 60 63  0  0  1  0  0  0  0  0999 V2000
    4.0960    3.3110   17.2560 C   0  0  0  0  0  0  0  0  0  0  0  0
    2.9450    4.1000   17.0470 C   0  0  0  0  0  0  0  0  0  0  0  0
    1.9690    4.2660   18.0360 C   0  0  0  0  0  0  0  0  0  0  0  0
    2.1690    3.6670   19.2650 C   0  0  0  0  0  0  0  0  0  0  0  0
    3.3250    2.9240   19.5080 C   0  0  0  0  0  0  0  0  0  0  0  0
    4.2920    2.7510   18.5260 C   0  0  0  0  0  0  0  0  0  0  0  0
    3.3010    2.3340   20.8870 C   0  0  0  0  0  0  0  0  0  0  0  0
    2.2240    3.1930   21.5680 C   0  0  0  0  0  0  0  0  0  0  0  0
    1.2530    3.6390   20.4550 C   0  0  1  0  0  0  0  0  0  0  0  0
    2.7930    4.5880   16.0860 H   0  0  0  0  0  0  0  0  0  0  0  0
    1.0770    4.8460   17.8290 H   0  0  0  0  0  0  0  0  0  0  0  0
    5.1720    2.1680   18.7630 H   0  0  0  0  0  0  0  0  0  0  0  0
    4.2660    2.4220   21.3980 H   0  0  0  0  0  0  0  0  0  0  0  0
    2.9980    1.2820   20.8390 H   0  0  0  0  0  0  0  0  0  0  0  0
    2.7060    4.0670   22.0300 H   0  0  0  0  0  0  0  0  0  0  0  0
    1.7100    2.6540   22.3710 H   0  0  0  0  0  0  0  0  0  0  0  0
    0.4720    2.8820   20.3040 H   0  0  0  0  0  0  0  0  0  0  0  0
    0.6560    4.9240   20.7290 N   0  0  0  0  0  0  0  0  0  0  0  0
    1.4400    6.0450   20.8120 C   0  0  0  0  0  0  0  0  0  0  0  0
    2.6610    6.0350   20.7630 O   0  0  0  0  0  0  0  0  0  0  0  0
    0.6760    7.1730   20.9710 N   0  0  0  0  0  0  0  0  0  0  0  0
   -0.2720    5.0660   20.3610 H   0  0  0  0  0  0  0  0  0  0  0  0
   -0.1880    7.0030   21.4670 H   0  0  0  0  0  0  0  0  0  0  0  0
    1.3030    8.4550   21.2380 C   0  0  0  0  0  0  0  0  0  0  0  0
    1.9660    8.6880   20.3990 H   0  0  0  0  0  0  0  0  0  0  0  0
    1.9440    8.3220   22.1180 H   0  0  0  0  0  0  0  0  0  0  0  0
    0.3110    9.5510   21.5410 C   0  0  0  0  0  0  0  0  0  0  0  0
   -0.2590    9.6300   22.8280 C   0  0  0  0  0  0  0  0  0  0  0  0
   -1.1430   10.6610   23.1550 C   0  0  0  0  0  0  0  0  0  0  0  0
   -1.4560   11.6290   22.2070 C   0  0  0  0  0  0  0  0  0  0  0  0
   -2.2990   12.6170   22.5300 F   0  0  0  0  0  0  0  0  0  0  0  0
   -0.9130   11.5810   20.9330 C   0  0  0  0  0  0  0  0  0  0  0  0
   -0.0440   10.5370   20.5990 C   0  0  0  0  0  0  0  0  0  0  0  0
   -0.0150    8.8830   23.5810 H   0  0  0  0  0  0  0  0  0  0  0  0
   -1.5870   10.7180   24.1450 H   0  0  0  0  0  0  0  0  0  0  0  0
   -1.1720   12.3470   20.2060 H   0  0  0  0  0  0  0  0  0  0  0  0
    0.4740   10.5320   19.2200 C   0  0  0  0  0  0  0  0  0  0  0  0
    1.5120   11.3820   18.9850 N   0  0  0  0  0  0  0  0  0  0  0  0
    0.0050    9.7880   18.3690 O   0  0  0  0  0  0  0  0  0  0  0  0
    1.7550   12.1250   19.6460 H   0  0  0  0  0  0  0  0  0  0  0  0
    1.8320   11.4920   18.0360 H   0  0  0  0  0  0  0  0  0  0  0  0
    5.0200    3.2290   16.2040 N   0  0  0  0  0  0  0  0  0  0  0  0
    5.5000    2.3300   16.2380 H   0  0  0  0  0  0  0  0  0  0  0  0
    5.9560    4.3320   15.9350 C   0  0  1  0  0  0  0  0  0  0  0  0
    6.8600    4.2210   16.5460 H   0  0  0  0  0  0  0  0  0  0  0  0
    6.3690    4.2900   14.4730 C   0  0  0  0  0  0  0  0  0  0  0  0
    5.7190    3.4640   13.5370 C   0  0  0  0  0  0  0  0  0  0  0  0
    6.1240    3.4430   12.1980 C   0  0  0  0  0  0  0  0  0  0  0  0
    7.1850    4.2440   11.7740 C   0  0  0  0  0  0  0  0  0  0  0  0
    7.8340    5.0720   12.6870 C   0  0  0  0  0  0  0  0  0  0  0  0
    7.4220    5.0930   14.0190 C   0  0  0  0  0  0  0  0  0  0  0  0
    8.0550    5.9160   14.8680 F   0  0  0  0  0  0  0  0  0  0  0  0
    4.8890    2.8290   13.8520 H   0  0  0  0  0  0  0  0  0  0  0  0
    5.6140    2.7960   11.4860 H   0  0  0  0  0  0  0  0  0  0  0  0
    7.5000    4.2270   10.7310 H   0  0  0  0  0  0  0  0  0  0  0  0
    8.6600    5.7050   12.3740 H   0  0  0  0  0  0  0  0  0  0  0  0
    5.2870    5.6710   16.2620 C   0  0  0  0  0  0  0  0  0  0  0  0
    4.1990    5.5650   16.3160 H   0  0  0  0  0  0  0  0  0  0  0  0
    5.6310    6.0750   17.2200 H   0  0  0  0  0  0  0  0  0  0  0  0
    5.5130    6.4240   15.4990 H   0  0  0  0  0  0  0  0  0  0  0  0
  1  6  1  0  0  0  0
  2  1  2  0  0  0  0
  2  3  1  0  0  0  0
  3  4  2  0  0  0  0
  4  5  1  0  0  0  0
  4  9  1  0  0  0  0
  5  7  1  0  0  0  0
  6 12  1  0  0  0  0
  6  5  2  0  0  0  0
  7 13  1  0  0  0  0
  7  8  1  0  0  0  0
  8 15  1  0  0  0  0
  8 16  1  0  0  0  0
  9 17  1  6  0  0  0
  9 18  1  0  0  0  0
  9  8  1  0  0  0  0
 10  2  1  0  0  0  0
 11  3  1  0  0  0  0
 14  7  1  0  0  0  0
 18 19  1  0  0  0  0
 19 21  1  0  0  0  0
 20 19  2  0  0  0  0
 21 24  1  0  0  0  0
 21 23  1  0  0  0  0
 22 18  1  0  0  0  0
 24 27  1  0  0  0  0
 24 26  1  0  0  0  0
 25 24  1  0  0  0  0
 27 28  1  0  0  0  0
 28 29  2  0  0  0  0
 28 34  1  0  0  0  0
 29 35  1  0  0  0  0
 30 31  1  0  0  0  0
 30 29  1  0  0  0  0
 32 30  2  0  0  0  0
 33 32  1  0  0  0  0
 33 27  2  0  0  0  0
 36 32  1  0  0  0  0
 37 33  1  0  0  0  0
 38 37  1  0  0  0  0
 38 40  1  0  0  0  0
 39 37  2  0  0  0  0
 41 38  1  0  0  0  0
 42 43  1  0  0  0  0
 42  1  1  0  0  0  0
 44 42  1  0  0  0  0
 44 57  1  0  0  0  0
 44 45  1  1  0  0  0
 46 44  1  0  0  0  0
 47 53  1  0  0  0  0
 47 46  2  0  0  0  0
 48 47  1  0  0  0  0
 49 48  2  0  0  0  0
 49 50  1  0  0  0  0
 50 51  2  0  0  0  0
 51 46  1  0  0  0  0
 51 52  1  0  0  0  0
 54 48  1  0  0  0  0
 55 49  1  0  0  0  0
 56 50  1  0  0  0  0
 57 58  1  0  0  0  0
 57 59  1  0  0  0  0
 60 57  1  0  0  0  0
M  END
>  <MODEL>
28

>  <REMARK>
 VINA RESULT:    -7.836      2.756      9.904
 INTER + INTRA:         -11.381
 INTER:                 -11.674
 INTRA:                   0.292
 UNBOUND:                -0.109
  Name = 
  8 active torsions:
  status: ('A' for Active; 'I' for Inactive)
    1  A    between atoms: C_1  and  C_2
    2  A    between atoms: C_2  and  N_3
    3  A    between atoms: C_2  and  C_28
    4  A    between atoms: N_3  and  C_4
    5  A    between atoms: C_12  and  N_13
    6  A    between atoms: N_16  and  C_17
    7  A    between atoms: C_17  and  C_18
    8  A    between atoms: C_24  and  C_25
                            x       y       z     vdW  Elec       q    Type
                         _______ _______ _______ _____ _____    ______ ____

>  <TORSDO>
F 8

$$$$
=
 OpenBabel07192307433D

 60 63  0  0  1  0  0  0  0  0999 V2000
    4.2380    6.0990   18.3340 C   0  0  0  0  0  0  0  0  0  0  0  0
    3.9740    7.0560   17.3300 C   0  0  0  0  0  0  0  0  0  0  0  0
    2.9700    8.0200   17.4710 C   0  0  0  0  0  0  0  0  0  0  0  0
    2.2480    8.0530   18.6490 C   0  0  0  0  0  0  0  0  0  0  0  0
    2.5280    7.1470   19.6730 C   0  0  0  0  0  0  0  0  0  0  0  0
    3.5190    6.1830   19.5340 C   0  0  0  0  0  0  0  0  0  0  0  0
    1.5920    7.3400   20.8290 C   0  0  0  0  0  0  0  0  0  0  0  0
    1.0460    8.7480   20.5460 C   0  0  0  0  0  0  0  0  0  0  0  0
    1.0900    8.9350   19.0160 C   0  0  1  0  0  0  0  0  0  0  0  0
    4.5520    7.0440   16.4080 H   0  0  0  0  0  0  0  0  0  0  0  0
    2.7660    8.7150   16.6640 H   0  0  0  0  0  0  0  0  0  0  0  0
    3.7000    5.5040   20.3570 H   0  0  0  0  0  0  0  0  0  0  0  0
    2.1040    7.2960   21.7960 H   0  0  0  0  0  0  0  0  0  0  0  0
    0.7940    6.5910   20.7940 H   0  0  0  0  0  0  0  0  0  0  0  0
    1.6930    9.4870   21.0410 H   0  0  0  0  0  0  0  0  0  0  0  0
    0.0370    8.8910   20.9500 H   0  0  0  0  0  0  0  0  0  0  0  0
    0.1690    8.5490   18.5580 H   0  0  0  0  0  0  0  0  0  0  0  0
    1.2970   10.3120   18.6350 N   0  0  0  0  0  0  0  0  0  0  0  0
    0.3400   11.2540   18.9070 C   0  0  0  0  0  0  0  0  0  0  0  0
   -0.7570   11.0030   19.3830 O   0  0  0  0  0  0  0  0  0  0  0  0
    0.7710   12.5110   18.5640 N   0  0  0  0  0  0  0  0  0  0  0  0
    2.2520   10.6370   18.6600 H   0  0  0  0  0  0  0  0  0  0  0  0
    1.4150   12.5130   17.7850 H   0  0  0  0  0  0  0  0  0  0  0  0
   -0.1390   13.6410   18.6200 C   0  0  0  0  0  0  0  0  0  0  0  0
   -1.0460   13.3720   18.0720 H   0  0  0  0  0  0  0  0  0  0  0  0
    0.3330   14.4610   18.0660 H   0  0  0  0  0  0  0  0  0  0  0  0
   -0.4070   14.1180   20.0270 C   0  0  0  0  0  0  0  0  0  0  0  0
   -1.7380   14.3150   20.4470 C   0  0  0  0  0  0  0  0  0  0  0  0
   -2.0230   14.7080   21.7570 C   0  0  0  0  0  0  0  0  0  0  0  0
   -0.9850   14.8950   22.6630 C   0  0  0  0  0  0  0  0  0  0  0  0
   -1.2660   15.2650   23.9180 F   0  0  0  0  0  0  0  0  0  0  0  0
    0.3350   14.7080   22.2830 C   0  0  0  0  0  0  0  0  0  0  0  0
    0.6210   14.3350   20.9660 C   0  0  0  0  0  0  0  0  0  0  0  0
   -2.5600   14.1640   19.7490 H   0  0  0  0  0  0  0  0  0  0  0  0
   -3.0490   14.8660   22.0780 H   0  0  0  0  0  0  0  0  0  0  0  0
    1.1320   14.8610   23.0070 H   0  0  0  0  0  0  0  0  0  0  0  0
    2.0460   14.1820   20.6230 C   0  0  0  0  0  0  0  0  0  0  0  0
    2.6180   15.2610   20.0200 N   0  0  0  0  0  0  0  0  0  0  0  0
    2.6570   13.1570   20.8930 O   0  0  0  0  0  0  0  0  0  0  0  0
    2.0510   16.0190   19.6300 H   0  0  0  0  0  0  0  0  0  0  0  0
    3.5590   15.1690   19.6720 H   0  0  0  0  0  0  0  0  0  0  0  0
    5.2810    5.1900   18.0980 N   0  0  0  0  0  0  0  0  0  0  0  0
    6.0310    5.6540   17.5860 H   0  0  0  0  0  0  0  0  0  0  0  0
    5.0050    3.8510   17.5570 C   0  0  1  0  0  0  0  0  0  0  0  0
    5.7750    3.1420   17.8860 H   0  0  0  0  0  0  0  0  0  0  0  0
    3.6640    3.3660   18.0840 C   0  0  0  0  0  0  0  0  0  0  0  0
    2.4600    3.6080   17.3960 C   0  0  0  0  0  0  0  0  0  0  0  0
    1.2400    3.1540   17.9070 C   0  0  0  0  0  0  0  0  0  0  0  0
    1.2030    2.4520   19.1130 C   0  0  0  0  0  0  0  0  0  0  0  0
    2.3870    2.1990   19.8020 C   0  0  0  0  0  0  0  0  0  0  0  0
    3.6000    2.6500   19.2850 C   0  0  0  0  0  0  0  0  0  0  0  0
    4.7240    2.3710   19.9630 F   0  0  0  0  0  0  0  0  0  0  0  0
    2.4700    4.1570   16.4530 H   0  0  0  0  0  0  0  0  0  0  0  0
    0.3170    3.3520   17.3660 H   0  0  0  0  0  0  0  0  0  0  0  0
    0.2520    2.0980   19.5100 H   0  0  0  0  0  0  0  0  0  0  0  0
    2.3770    1.6510   20.7400 H   0  0  0  0  0  0  0  0  0  0  0  0
    4.9880    3.9020   16.0250 C   0  0  0  0  0  0  0  0  0  0  0  0
    5.4210    2.9920   15.5960 H   0  0  0  0  0  0  0  0  0  0  0  0
    3.9710    4.0060   15.6330 H   0  0  0  0  0  0  0  0  0  0  0  0
    5.5640    4.7550   15.6500 H   0  0  0  0  0  0  0  0  0  0  0  0
  1  6  1  0  0  0  0
  2  3  1  0  0  0  0
  2  1  2  0  0  0  0
  3  4  2  0  0  0  0
  4  9  1  0  0  0  0
  4  5  1  0  0  0  0
  5  7  1  0  0  0  0
  6  5  2  0  0  0  0
  6 12  1  0  0  0  0
  7 13  1  0  0  0  0
  8  7  1  0  0  0  0
  8 16  1  0  0  0  0
  8 15  1  0  0  0  0
  9 17  1  6  0  0  0
  9  8  1  0  0  0  0
 10  2  1  0  0  0  0
 11  3  1  0  0  0  0
 14  7  1  0  0  0  0
 18 22  1  0  0  0  0
 18 19  1  0  0  0  0
 18  9  1  0  0  0  0
 19 20  2  0  0  0  0
 21 24  1  0  0  0  0
 21 19  1  0  0  0  0
 23 21  1  0  0  0  0
 24 27  1  0  0  0  0
 25 24  1  0  0  0  0
 26 24  1  0  0  0  0
 27 28  2  0  0  0  0
 27 33  1  0  0  0  0
 28 29  1  0  0  0  0
 29 35  1  0  0  0  0
 29 30  2  0  0  0  0
 30 31  1  0  0  0  0
 32 30  1  0  0  0  0
 32 36  1  0  0  0  0
 33 32  2  0  0  0  0
 34 28  1  0  0  0  0
 37 39  2  0  0  0  0
 37 33  1  0  0  0  0
 38 37  1  0  0  0  0
 40 38  1  0  0  0  0
 41 38  1  0  0  0  0
 42  1  1  0  0  0  0
 43 42  1  0  0  0  0
 44 45  1  1  0  0  0
 44 46  1  0  0  0  0
 44 42  1  0  0  0  0
 46 51  1  0  0  0  0
 47 48  1  0  0  0  0
 47 46  2  0  0  0  0
 48 49  2  0  0  0  0
 49 55  1  0  0  0  0
 49 50  1  0  0  0  0
 50 56  1  0  0  0  0
 51 50  2  0  0  0  0
 51 52  1  0  0  0  0
 53 47  1  0  0  0  0
 54 48  1  0  0  0  0
 57 44  1  0  0  0  0
 58 57  1  0  0  0  0
 59 57  1  0  0  0  0
 60 57  1  0  0  0  0
M  END
>  <MODEL>
29

>  <REMARK>
 VINA RESULT:    -7.809      3.816     10.027
 INTER + INTRA:         -11.342
 INTER:                 -10.645
 INTRA:                  -0.698
 UNBOUND:                -0.109
  Name = 
  8 active torsions:
  status: ('A' for Active; 'I' for Inactive)
    1  A    between atoms: C_1  and  C_2
    2  A    between atoms: C_2  and  N_3
    3  A    between atoms: C_2  and  C_28
    4  A    between atoms: N_3  and  C_4
    5  A    between atoms: C_12  and  N_13
    6  A    between atoms: N_16  and  C_17
    7  A    between atoms: C_17  and  C_18
    8  A    between atoms: C_24  and  C_25
                            x       y       z     vdW  Elec       q    Type
                         _______ _______ _______ _____ _____    ______ ____

>  <TORSDO>
F 8

$$$$
=
 OpenBabel07192307433D

 60 63  0  0  1  0  0  0  0  0999 V2000
   -1.4050   13.6380   19.8860 C   0  0  0  0  0  0  0  0  0  0  0  0
   -1.7820   12.2780   19.9140 C   0  0  0  0  0  0  0  0  0  0  0  0
   -0.9740   11.2730   19.3700 C   0  0  0  0  0  0  0  0  0  0  0  0
    0.2460   11.6290   18.8290 C   0  0  0  0  0  0  0  0  0  0  0  0
    0.6590   12.9630   18.8370 C   0  0  0  0  0  0  0  0  0  0  0  0
   -0.1430   13.9640   19.3690 C   0  0  0  0  0  0  0  0  0  0  0  0
    1.9870   13.1160   18.1580 C   0  0  0  0  0  0  0  0  0  0  0  0
    2.5020   11.6680   18.1650 C   0  0  0  0  0  0  0  0  0  0  0  0
    1.2550   10.7610   18.1330 C   0  0  1  0  0  0  0  0  0  0  0  0
   -2.7350   11.9910   20.3550 H   0  0  0  0  0  0  0  0  0  0  0  0
   -1.3120   10.2430   19.3720 H   0  0  0  0  0  0  0  0  0  0  0  0
    0.2210   14.9830   19.3540 H   0  0  0  0  0  0  0  0  0  0  0  0
    2.6640   13.7840   18.7020 H   0  0  0  0  0  0  0  0  0  0  0  0
    1.8450   13.4810   17.1350 H   0  0  0  0  0  0  0  0  0  0  0  0
    3.0760   11.4980   19.0880 H   0  0  0  0  0  0  0  0  0  0  0  0
    3.1800   11.4640   17.3290 H   0  0  0  0  0  0  0  0  0  0  0  0
    0.9390   10.5820   17.0970 H   0  0  0  0  0  0  0  0  0  0  0  0
    1.4700    9.5050   18.8130 N   0  0  0  0  0  0  0  0  0  0  0  0
    2.2110    8.5180   18.2180 C   0  0  0  0  0  0  0  0  0  0  0  0
    2.6470    8.5770   17.0780 O   0  0  0  0  0  0  0  0  0  0  0  0
    2.3850    7.4520   19.0650 N   0  0  0  0  0  0  0  0  0  0  0  0
    1.5300    9.5530   19.8180 H   0  0  0  0  0  0  0  0  0  0  0  0
    1.6180    7.3250   19.7100 H   0  0  0  0  0  0  0  0  0  0  0  0
    3.0060    6.2290   18.5890 C   0  0  0  0  0  0  0  0  0  0  0  0
    4.0650    6.4370   18.4050 H   0  0  0  0  0  0  0  0  0  0  0  0
    2.5570    5.9980   17.6160 H   0  0  0  0  0  0  0  0  0  0  0  0
    2.7770    5.0510   19.5050 C   0  0  0  0  0  0  0  0  0  0  0  0
    1.7390    5.1090   20.4570 C   0  0  0  0  0  0  0  0  0  0  0  0
    1.4700    4.0170   21.2860 C   0  0  0  0  0  0  0  0  0  0  0  0
    2.2230    2.8550   21.1640 C   0  0  0  0  0  0  0  0  0  0  0  0
    1.9550    1.8100   21.9570 F   0  0  0  0  0  0  0  0  0  0  0  0
    3.2510    2.7650   20.2380 C   0  0  0  0  0  0  0  0  0  0  0  0
    3.5330    3.8650   19.4220 C   0  0  0  0  0  0  0  0  0  0  0  0
    1.1370    6.0100   20.5560 H   0  0  0  0  0  0  0  0  0  0  0  0
    0.6730    4.0640   22.0230 H   0  0  0  0  0  0  0  0  0  0  0  0
    3.8280    1.8470   20.1600 H   0  0  0  0  0  0  0  0  0  0  0  0
    4.6560    3.7110   18.4810 C   0  0  0  0  0  0  0  0  0  0  0  0
    5.8850    4.0080   18.9870 N   0  0  0  0  0  0  0  0  0  0  0  0
    4.4750    3.3180   17.3370 O   0  0  0  0  0  0  0  0  0  0  0  0
    5.9910    4.5170   19.8700 H   0  0  0  0  0  0  0  0  0  0  0  0
    6.6710    4.0200   18.3560 H   0  0  0  0  0  0  0  0  0  0  0  0
   -2.2800   14.5600   20.4780 N   0  0  0  0  0  0  0  0  0  0  0  0
   -2.4120   15.3570   19.8550 H   0  0  0  0  0  0  0  0  0  0  0  0
   -2.0940   14.9890   21.8720 C   0  0  1  0  0  0  0  0  0  0  0  0
   -2.3570   16.0480   21.9830 H   0  0  0  0  0  0  0  0  0  0  0  0
   -3.0150   14.1800   22.7710 C   0  0  0  0  0  0  0  0  0  0  0  0
   -4.3230   14.6030   23.0740 C   0  0  0  0  0  0  0  0  0  0  0  0
   -5.1470   13.8410   23.9080 C   0  0  0  0  0  0  0  0  0  0  0  0
   -4.6780   12.6440   24.4530 C   0  0  0  0  0  0  0  0  0  0  0  0
   -3.3880   12.2090   24.1570 C   0  0  0  0  0  0  0  0  0  0  0  0
   -2.5730   12.9710   23.3210 C   0  0  0  0  0  0  0  0  0  0  0  0
   -1.3440   12.5130   23.0400 F   0  0  0  0  0  0  0  0  0  0  0  0
   -4.7050   15.5370   22.6580 H   0  0  0  0  0  0  0  0  0  0  0  0
   -6.1550   14.1830   24.1360 H   0  0  0  0  0  0  0  0  0  0  0  0
   -5.3200   12.0510   25.1020 H   0  0  0  0  0  0  0  0  0  0  0  0
   -3.0070   11.2790   24.5700 H   0  0  0  0  0  0  0  0  0  0  0  0
   -0.6320   14.7870   22.2870 C   0  0  0  0  0  0  0  0  0  0  0  0
   -0.4190   13.7290   22.4740 H   0  0  0  0  0  0  0  0  0  0  0  0
    0.0620   15.1360   21.5150 H   0  0  0  0  0  0  0  0  0  0  0  0
   -0.3980   15.3420   23.2020 H   0  0  0  0  0  0  0  0  0  0  0  0
  1  2  1  0  0  0  0
  1 42  1  0  0  0  0
  2 10  1  0  0  0  0
  3 11  1  0  0  0  0
  3  2  2  0  0  0  0
  4  5  2  0  0  0  0
  4  3  1  0  0  0  0
  5  6  1  0  0  0  0
  6  1  2  0  0  0  0
  7  8  1  0  0  0  0
  7 13  1  0  0  0  0
  7  5  1  0  0  0  0
  8 15  1  0  0  0  0
  9 17  1  6  0  0  0
  9  8  1  0  0  0  0
  9 18  1  0  0  0  0
  9  4  1  0  0  0  0
 12  6  1  0  0  0  0
 14  7  1  0  0  0  0
 16  8  1  0  0  0  0
 18 22  1  0  0  0  0
 19 18  1  0  0  0  0
 19 21  1  0  0  0  0
 20 19  2  0  0  0  0
 21 23  1  0  0  0  0
 24 21  1  0  0  0  0
 24 27  1  0  0  0  0
 25 24  1  0  0  0  0
 26 24  1  0  0  0  0
 27 28  1  0  0  0  0
 28 34  1  0  0  0  0
 28 29  2  0  0  0  0
 29 35  1  0  0  0  0
 30 29  1  0  0  0  0
 30 31  1  0  0  0  0
 32 30  2  0  0  0  0
 33 27  2  0  0  0  0
 33 32  1  0  0  0  0
 36 32  1  0  0  0  0
 37 38  1  0  0  0  0
 37 33  1  0  0  0  0
 38 40  1  0  0  0  0
 39 37  2  0  0  0  0
 41 38  1  0  0  0  0
 42 44  1  0  0  0  0
 43 42  1  0  0  0  0
 44 45  1  1  0  0  0
 44 57  1  0  0  0  0
 44 46  1  0  0  0  0
 46 47  2  0  0  0  0
 46 51  1  0  0  0  0
 47 48  1  0  0  0  0
 48 54  1  0  0  0  0
 48 49  2  0  0  0  0
 49 55  1  0  0  0  0
 50 49  1  0  0  0  0
 50 56  1  0  0  0  0
 51 50  2  0  0  0  0
 52 51  1  0  0  0  0
 53 47  1  0  0  0  0
 57 58  1  0  0  0  0
 57 60  1  0  0  0  0
 59 57  1  0  0  0  0
M  END
>  <MODEL>
30

>  <REMARK>
 VINA RESULT:    -7.664      3.747      5.925
 INTER + INTRA:         -11.134
 INTER:                 -10.943
 INTRA:                  -0.191
 UNBOUND:                -0.109
  Name = 
  8 active torsions:
  status: ('A' for Active; 'I' for Inactive)
    1  A    between atoms: C_1  and  C_2
    2  A    between atoms: C_2  and  N_3
    3  A    between atoms: C_2  and  C_28
    4  A    between atoms: N_3  and  C_4
    5  A    between atoms: C_12  and  N_13
    6  A    between atoms: N_16  and  C_17
    7  A    between atoms: C_17  and  C_18
    8  A    between atoms: C_24  and  C_25
                            x       y       z     vdW  Elec       q    Type
                         _______ _______ _______ _____ _____    ______ ____

>  <TORSDO>
F 8

$$$$
=
 OpenBabel07192307433D

 60 63  0  0  1  0  0  0  0  0999 V2000
    2.7490    7.3020   18.6950 C   0  0  0  0  0  0  0  0  0  0  0  0
    2.5020    8.2420   17.6710 C   0  0  0  0  0  0  0  0  0  0  0  0
    1.6060    9.3040   17.8400 C   0  0  0  0  0  0  0  0  0  0  0  0
    0.9810    9.4510   19.0630 C   0  0  0  0  0  0  0  0  0  0  0  0
    1.2500    8.5610   20.1040 C   0  0  0  0  0  0  0  0  0  0  0  0
    2.1330    7.5010   19.9380 C   0  0  0  0  0  0  0  0  0  0  0  0
    0.4260    8.8880   21.3130 C   0  0  0  0  0  0  0  0  0  0  0  0
   -0.0050   10.3310   21.0080 C   0  0  0  0  0  0  0  0  0  0  0  0
   -0.0580   10.4550   19.4720 C   0  0  1  0  0  0  0  0  0  0  0  0
    3.0060    8.1390   16.7120 H   0  0  0  0  0  0  0  0  0  0  0  0
    1.4090    9.9840   17.0190 H   0  0  0  0  0  0  0  0  0  0  0  0
    2.3100    6.8390   20.7760 H   0  0  0  0  0  0  0  0  0  0  0  0
    1.0030    8.8300   22.2430 H   0  0  0  0  0  0  0  0  0  0  0  0
   -0.4400    8.2190   21.3690 H   0  0  0  0  0  0  0  0  0  0  0  0
    0.7440   11.0210   21.4230 H   0  0  0  0  0  0  0  0  0  0  0  0
   -0.9620   10.5860   21.4760 H   0  0  0  0  0  0  0  0  0  0  0  0
   -1.0430   10.1430   19.0970 H   0  0  0  0  0  0  0  0  0  0  0  0
    0.2490   11.7900   19.0160 N   0  0  0  0  0  0  0  0  0  0  0  0
    0.7250   12.7260   19.8960 C   0  0  0  0  0  0  0  0  0  0  0  0
    0.8300   12.5480   21.1010 O   0  0  0  0  0  0  0  0  0  0  0  0
    1.0530   13.8910   19.2500 N   0  0  0  0  0  0  0  0  0  0  0  0
    0.5900   11.8650   18.0700 H   0  0  0  0  0  0  0  0  0  0  0  0
    0.4890   14.0660   18.4300 H   0  0  0  0  0  0  0  0  0  0  0  0
    1.4300   15.0710   20.0070 C   0  0  0  0  0  0  0  0  0  0  0  0
    0.6790   15.2260   20.7870 H   0  0  0  0  0  0  0  0  0  0  0  0
    1.3570   15.9270   19.3250 H   0  0  0  0  0  0  0  0  0  0  0  0
    2.8420   15.0110   20.5370 C   0  0  0  0  0  0  0  0  0  0  0  0
    3.0550   14.9650   21.9300 C   0  0  0  0  0  0  0  0  0  0  0  0
    4.3470   14.8590   22.4510 C   0  0  0  0  0  0  0  0  0  0  0  0
    5.4350   14.7850   21.5890 C   0  0  0  0  0  0  0  0  0  0  0  0
    6.6700   14.6770   22.0960 F   0  0  0  0  0  0  0  0  0  0  0  0
    5.2610   14.8270   20.2140 C   0  0  0  0  0  0  0  0  0  0  0  0
    3.9690   14.9530   19.6930 C   0  0  0  0  0  0  0  0  0  0  0  0
    2.2100   15.0130   22.6140 H   0  0  0  0  0  0  0  0  0  0  0  0
    4.5110   14.8290   23.5240 H   0  0  0  0  0  0  0  0  0  0  0  0
    6.1260   14.7690   19.5590 H   0  0  0  0  0  0  0  0  0  0  0  0
    3.8590   15.0210   18.2260 C   0  0  0  0  0  0  0  0  0  0  0  0
    5.0100   14.7640   17.5440 N   0  0  0  0  0  0  0  0  0  0  0  0
    2.7920   15.2670   17.6810 O   0  0  0  0  0  0  0  0  0  0  0  0
    5.9190   14.7560   18.0130 H   0  0  0  0  0  0  0  0  0  0  0  0
    5.0120   14.9000   16.5450 H   0  0  0  0  0  0  0  0  0  0  0  0
    3.6810    6.2880   18.4270 N   0  0  0  0  0  0  0  0  0  0  0  0
    3.4700    5.8570   17.5270 H   0  0  0  0  0  0  0  0  0  0  0  0
    4.0110    5.2800   19.4450 C   0  0  1  0  0  0  0  0  0  0  0  0
    3.9360    5.7150   20.4500 H   0  0  0  0  0  0  0  0  0  0  0  0
    3.0160    4.1340   19.3540 C   0  0  0  0  0  0  0  0  0  0  0  0
    2.9110    3.3270   18.2050 C   0  0  0  0  0  0  0  0  0  0  0  0
    1.9830    2.2820   18.1480 C   0  0  0  0  0  0  0  0  0  0  0  0
    1.1440    2.0280   19.2340 C   0  0  0  0  0  0  0  0  0  0  0  0
    1.2400    2.8150   20.3800 C   0  0  0  0  0  0  0  0  0  0  0  0
    2.1710    3.8510   20.4340 C   0  0  0  0  0  0  0  0  0  0  0  0
    2.2530    4.5760   21.5600 F   0  0  0  0  0  0  0  0  0  0  0  0
    3.5570    3.5120   17.3460 H   0  0  0  0  0  0  0  0  0  0  0  0
    1.9100    1.6680   17.2520 H   0  0  0  0  0  0  0  0  0  0  0  0
    0.4210    1.2150   19.1890 H   0  0  0  0  0  0  0  0  0  0  0  0
    0.5980    2.6300   21.2360 H   0  0  0  0  0  0  0  0  0  0  0  0
    5.4370    4.7650   19.2240 C   0  0  0  0  0  0  0  0  0  0  0  0
    5.5400    4.3040   18.2350 H   0  0  0  0  0  0  0  0  0  0  0  0
    6.1760    5.5700   19.2950 H   0  0  0  0  0  0  0  0  0  0  0  0
    5.7090    4.0140   19.9730 H   0  0  0  0  0  0  0  0  0  0  0  0
  1  6  1  0  0  0  0
  2  3  1  0  0  0  0
  2  1  2  0  0  0  0
  3  4  2  0  0  0  0
  4  9  1  0  0  0  0
  4  5  1  0  0  0  0
  5  7  1  0  0  0  0
  6  5  2  0  0  0  0
  6 12  1  0  0  0  0
  7 14  1  0  0  0  0
  7 13  1  0  0  0  0
  8  7  1  0  0  0  0
  8 15  1  0  0  0  0
  8 16  1  0  0  0  0
  9 17  1  6  0  0  0
  9  8  1  0  0  0  0
 10  2  1  0  0  0  0
 11  3  1  0  0  0  0
 18  9  1  0  0  0  0
 18 19  1  0  0  0  0
 19 20  2  0  0  0  0
 21 19  1  0  0  0  0
 21 24  1  0  0  0  0
 22 18  1  0  0  0  0
 23 21  1  0  0  0  0
 24 27  1  0  0  0  0
 24 25  1  0  0  0  0
 26 24  1  0  0  0  0
 27 28  1  0  0  0  0
 28 29  2  0  0  0  0
 28 34  1  0  0  0  0
 29 35  1  0  0  0  0
 30 31  1  0  0  0  0
 30 29  1  0  0  0  0
 32 30  2  0  0  0  0
 33 32  1  0  0  0  0
 33 27  2  0  0  0  0
 36 32  1  0  0  0  0
 37 33  1  0  0  0  0
 38 40  1  0  0  0  0
 38 37  1  0  0  0  0
 39 37  2  0  0  0  0
 41 38  1  0  0  0  0
 42  1  1  0  0  0  0
 42 44  1  0  0  0  0
 43 42  1  0  0  0  0
 44 45  1  1  0  0  0
 46 44  1  0  0  0  0
 46 51  1  0  0  0  0
 47 46  2  0  0  0  0
 48 47  1  0  0  0  0
 48 49  2  0  0  0  0
 49 50  1  0  0  0  0
 50 51  2  0  0  0  0
 50 56  1  0  0  0  0
 51 52  1  0  0  0  0
 53 47  1  0  0  0  0
 54 48  1  0  0  0  0
 55 49  1  0  0  0  0
 57 59  1  0  0  0  0
 57 44  1  0  0  0  0
 57 60  1  0  0  0  0
 58 57  1  0  0  0  0
M  END
>  <MODEL>
31

>  <REMARK>
 VINA RESULT:    -7.635      4.535      9.333
 INTER + INTRA:         -11.092
 INTER:                 -11.624
 INTRA:                   0.533
 UNBOUND:                -0.109
  Name = 
  8 active torsions:
  status: ('A' for Active; 'I' for Inactive)
    1  A    between atoms: C_1  and  C_2
    2  A    between atoms: C_2  and  N_3
    3  A    between atoms: C_2  and  C_28
    4  A    between atoms: N_3  and  C_4
    5  A    between atoms: C_12  and  N_13
    6  A    between atoms: N_16  and  C_17
    7  A    between atoms: C_17  and  C_18
    8  A    between atoms: C_24  and  C_25
                            x       y       z     vdW  Elec       q    Type
                         _______ _______ _______ _____ _____    ______ ____

>  <TORSDO>
F 8

$$$$
=
 OpenBabel07192307433D

 60 63  0  0  1  0  0  0  0  0999 V2000
   -0.6030   13.7410   19.9280 C   0  0  0  0  0  0  0  0  0  0  0  0
    0.6200   13.0460   20.0460 C   0  0  0  0  0  0  0  0  0  0  0  0
    0.7910   11.7540   19.5390 C   0  0  0  0  0  0  0  0  0  0  0  0
   -0.2640   11.1640   18.8680 C   0  0  0  0  0  0  0  0  0  0  0  0
   -1.4660   11.8540   18.6980 C   0  0  0  0  0  0  0  0  0  0  0  0
   -1.6410   13.1350   19.2060 C   0  0  0  0  0  0  0  0  0  0  0  0
   -2.4740   11.0040   17.9860 C   0  0  0  0  0  0  0  0  0  0  0  0
   -1.5770    9.9220   17.3640 C   0  0  0  0  0  0  0  0  0  0  0  0
   -0.3560    9.7790   18.2960 C   0  0  1  0  0  0  0  0  0  0  0  0
    1.4580   13.5140   20.5580 H   0  0  0  0  0  0  0  0  0  0  0  0
    1.7300   11.2320   19.6820 H   0  0  0  0  0  0  0  0  0  0  0  0
   -2.5900   13.6300   19.0460 H   0  0  0  0  0  0  0  0  0  0  0  0
   -3.0240   11.5580   17.2170 H   0  0  0  0  0  0  0  0  0  0  0  0
   -3.1750   10.5710   18.7080 H   0  0  0  0  0  0  0  0  0  0  0  0
   -1.2600   10.2530   16.3640 H   0  0  0  0  0  0  0  0  0  0  0  0
   -2.1060    8.9720   17.2290 H   0  0  0  0  0  0  0  0  0  0  0  0
   -0.5700    9.0590   19.0970 H   0  0  0  0  0  0  0  0  0  0  0  0
    0.8380    9.3920   17.5830 N   0  0  0  0  0  0  0  0  0  0  0  0
    1.7580    8.5680   18.1760 C   0  0  0  0  0  0  0  0  0  0  0  0
    1.6970    8.1910   19.3370 O   0  0  0  0  0  0  0  0  0  0  0  0
    2.7620    8.2360   17.3010 N   0  0  0  0  0  0  0  0  0  0  0  0
    0.7420    9.2940   16.5830 H   0  0  0  0  0  0  0  0  0  0  0  0
    2.9490    8.9550   16.6160 H   0  0  0  0  0  0  0  0  0  0  0  0
    3.9250    7.4990   17.7620 C   0  0  0  0  0  0  0  0  0  0  0  0
    4.1650    7.8450   18.7710 H   0  0  0  0  0  0  0  0  0  0  0  0
    4.7650    7.7920   17.1200 H   0  0  0  0  0  0  0  0  0  0  0  0
    3.7580    6.0020   17.6640 C   0  0  0  0  0  0  0  0  0  0  0  0
    2.6060    5.4000   18.2090 C   0  0  0  0  0  0  0  0  0  0  0  0
    2.3970    4.0240   18.0920 C   0  0  0  0  0  0  0  0  0  0  0  0
    3.3280    3.2390   17.4200 C   0  0  0  0  0  0  0  0  0  0  0  0
    3.1170    1.9210   17.3070 F   0  0  0  0  0  0  0  0  0  0  0  0
    4.4710    3.7990   16.8720 C   0  0  0  0  0  0  0  0  0  0  0  0
    4.6890    5.1740   17.0070 C   0  0  0  0  0  0  0  0  0  0  0  0
    1.8660    6.0050   18.7290 H   0  0  0  0  0  0  0  0  0  0  0  0
    1.5120    3.5590   18.5170 H   0  0  0  0  0  0  0  0  0  0  0  0
    5.1860    3.1670   16.3520 H   0  0  0  0  0  0  0  0  0  0  0  0
    5.9380    5.6990   16.4260 C   0  0  0  0  0  0  0  0  0  0  0  0
    5.8770    6.0100   15.1010 N   0  0  0  0  0  0  0  0  0  0  0  0
    6.9380    5.8580   17.1120 O   0  0  0  0  0  0  0  0  0  0  0  0
    5.1050    5.6880   14.5110 H   0  0  0  0  0  0  0  0  0  0  0  0
    6.7300    6.2720   14.6340 H   0  0  0  0  0  0  0  0  0  0  0  0
   -0.6590   15.0400   20.4540 N   0  0  0  0  0  0  0  0  0  0  0  0
    0.1770   15.5570   20.1820 H   0  0  0  0  0  0  0  0  0  0  0  0
   -0.9990   15.2670   21.8670 C   0  0  1  0  0  0  0  0  0  0  0  0
   -1.3200   16.3050   22.0190 H   0  0  0  0  0  0  0  0  0  0  0  0
   -2.1530   14.3560   22.2550 C   0  0  0  0  0  0  0  0  0  0  0  0
   -3.4950   14.7190   22.0360 C   0  0  0  0  0  0  0  0  0  0  0  0
   -4.5380   13.8640   22.4070 C   0  0  0  0  0  0  0  0  0  0  0  0
   -4.2560   12.6340   23.0050 C   0  0  0  0  0  0  0  0  0  0  0  0
   -2.9320   12.2580   23.2220 C   0  0  0  0  0  0  0  0  0  0  0  0
   -1.8980   13.1130   22.8440 C   0  0  0  0  0  0  0  0  0  0  0  0
   -0.6340   12.7120   23.0490 F   0  0  0  0  0  0  0  0  0  0  0  0
   -3.7340   15.6780   21.5730 H   0  0  0  0  0  0  0  0  0  0  0  0
   -5.5710   14.1590   22.2350 H   0  0  0  0  0  0  0  0  0  0  0  0
   -5.0680   11.9680   23.2930 H   0  0  0  0  0  0  0  0  0  0  0  0
   -2.6940   11.3030   23.6820 H   0  0  0  0  0  0  0  0  0  0  0  0
    0.2230   14.9830   22.7470 C   0  0  0  0  0  0  0  0  0  0  0  0
    0.2290   13.9420   23.0880 H   0  0  0  0  0  0  0  0  0  0  0  0
    1.1610   15.1650   22.2130 H   0  0  0  0  0  0  0  0  0  0  0  0
    0.2310   15.6250   23.6340 H   0  0  0  0  0  0  0  0  0  0  0  0
  1  2  1  0  0  0  0
  1 42  1  0  0  0  0
  2 10  1  0  0  0  0
  3 11  1  0  0  0  0
  3  2  2  0  0  0  0
  4  3  1  0  0  0  0
  5  4  2  0  0  0  0
  5  6  1  0  0  0  0
  6  1  2  0  0  0  0
  7  5  1  0  0  0  0
  7 14  1  0  0  0  0
  8  7  1  0  0  0  0
  8  9  1  0  0  0  0
  9  4  1  0  0  0  0
  9 17  1  1  0  0  0
 12  6  1  0  0  0  0
 13  7  1  0  0  0  0
 15  8  1  0  0  0  0
 16  8  1  0  0  0  0
 18 19  1  0  0  0  0
 18  9  1  0  0  0  0
 19 20  2  0  0  0  0
 21 24  1  0  0  0  0
 21 19  1  0  0  0  0
 22 18  1  0  0  0  0
 23 21  1  0  0  0  0
 24 25  1  0  0  0  0
 26 24  1  0  0  0  0
 27 24  1  0  0  0  0
 27 28  1  0  0  0  0
 28 34  1  0  0  0  0
 29 28  2  0  0  0  0
 29 35  1  0  0  0  0
 30 29  1  0  0  0  0
 31 30  1  0  0  0  0
 32 33  1  0  0  0  0
 32 30  2  0  0  0  0
 33 27  2  0  0  0  0
 36 32  1  0  0  0  0
 37 33  1  0  0  0  0
 37 39  2  0  0  0  0
 38 37  1  0  0  0  0
 40 38  1  0  0  0  0
 41 38  1  0  0  0  0
 42 44  1  0  0  0  0
 43 42  1  0  0  0  0
 44 45  1  1  0  0  0
 44 46  1  0  0  0  0
 44 57  1  0  0  0  0
 46 51  1  0  0  0  0
 47 46  2  0  0  0  0
 47 48  1  0  0  0  0
 48 49  2  0  0  0  0
 49 50  1  0  0  0  0
 49 55  1  0  0  0  0
 50 56  1  0  0  0  0
 51 52  1  0  0  0  0
 51 50  2  0  0  0  0
 53 47  1  0  0  0  0
 54 48  1  0  0  0  0
 57 58  1  0  0  0  0
 57 60  1  0  0  0  0
 59 57  1  0  0  0  0
M  END
>  <MODEL>
32

>  <REMARK>
 VINA RESULT:    -7.481      3.231      4.849
 INTER + INTRA:         -10.870
 INTER:                 -10.761
 INTRA:                  -0.109
 UNBOUND:                -0.109
  Name = 
  8 active torsions:
  status: ('A' for Active; 'I' for Inactive)
    1  A    between atoms: C_1  and  C_2
    2  A    between atoms: C_2  and  N_3
    3  A    between atoms: C_2  and  C_28
    4  A    between atoms: N_3  and  C_4
    5  A    between atoms: C_12  and  N_13
    6  A    between atoms: N_16  and  C_17
    7  A    between atoms: C_17  and  C_18
    8  A    between atoms: C_24  and  C_25
                            x       y       z     vdW  Elec       q    Type
                         _______ _______ _______ _____ _____    ______ ____

>  <TORSDO>
F 8

$$$$
