=
 OpenBabel07192307433D

 24 24  0  0  0  0  0  0  0  0999 V2000
    3.5360    5.2100   19.3860 C   0  0  0  0  0  0  0  0  0  0  0  0
    2.9340    6.0000   18.4010 C   0  0  0  0  0  0  0  0  0  0  0  0
    3.7100    6.6950   17.4660 C   0  0  0  0  0  0  0  0  0  0  0  0
    5.0990    6.6030   17.5010 C   0  0  0  0  0  0  0  0  0  0  0  0
    5.7020    5.8040   18.4720 C   0  0  0  0  0  0  0  0  0  0  0  0
    4.9310    5.1170   19.4180 C   0  0  0  0  0  0  0  0  0  0  0  0
    1.8540    6.1040   18.3360 H   0  0  0  0  0  0  0  0  0  0  0  0
    3.2210    7.3110   16.7140 H   0  0  0  0  0  0  0  0  0  0  0  0
    5.6960    7.1520   16.7760 H   0  0  0  0  0  0  0  0  0  0  0  0
    5.4270    4.5140   20.1740 H   0  0  0  0  0  0  0  0  0  0  0  0
    2.4310    3.1640   20.3200 C   0  0  0  0  0  0  0  0  0  0  0  0
    2.6250    2.3680   19.4090 O   0  0  0  0  0  0  0  0  0  0  0  0
    2.8220    4.4910   20.3670 N   0  0  0  0  0  0  0  0  0  0  0  0
    2.5590    5.0110   21.1950 H   0  0  0  0  0  0  0  0  0  0  0  0
    1.6680    2.7520   21.5560 C   0  0  0  0  0  0  0  0  0  0  0  0
    2.0500    1.7910   21.9130 H   0  0  0  0  0  0  0  0  0  0  0  0
    0.5990    2.6690   21.3450 H   0  0  0  0  0  0  0  0  0  0  0  0
    1.8030    3.5080   22.3340 H   0  0  0  0  0  0  0  0  0  0  0  0
    7.4650    5.7040   18.5420 S   0  0  0  0  0  0  0  0  0  0  0  0
    8.0250    7.0090   18.2800 O   0  0  0  0  0  0  0  0  0  0  0  0
    7.9020    4.5180   17.8440 O   0  0  0  0  0  0  0  0  0  0  0  0
    7.7320    5.4120   20.1730 N   0  0  0  0  0  0  0  0  0  0  0  0
    8.4870    6.0060   20.5140 H   0  0  0  0  0  0  0  0  0  0  0  0
    7.8920    4.4160   20.3250 H   0  0  0  0  0  0  0  0  0  0  0  0
  1  6  1  0  0  0  0
  1 13  1  0  0  0  0
  2  1  2  0  0  0  0
  3  4  2  0  0  0  0
  3  2  1  0  0  0  0
  4  5  1  0  0  0  0
  5 19  1  0  0  0  0
  5  6  2  0  0  0  0
  6 10  1  0  0  0  0
  7  2  1  0  0  0  0
  8  3  1  0  0  0  0
  9  4  1  0  0  0  0
 11 13  1  0  0  0  0
 11 15  1  0  0  0  0
 12 11  2  0  0  0  0
 13 14  1  0  0  0  0
 15 16  1  0  0  0  0
 15 18  1  0  0  0  0
 17 15  1  0  0  0  0
 19 22  1  0  0  0  0
 20 19  2  0  0  0  0
 21 19  2  0  0  0  0
 22 24  1  0  0  0  0
 22 23  1  0  0  0  0
M  END
>  <MODEL>
1

>  <REMARK>
 VINA RESULT:    -6.539      0.000      0.000
 INTER + INTRA:          -7.550
 INTER:                  -7.298
 INTRA:                  -0.252
 UNBOUND:                 0.136
  Name = 
  4 active torsions:
  status: ('A' for Active; 'I' for Inactive)
    1  A    between atoms: C_1  and  C_2
    2  A    between atoms: N_4  and  C_5
    3  A    between atoms: C_9  and  S_11
    4  A    between atoms: S_11  and  N_14
                            x       y       z     vdW  Elec       q    Type
                         _______ _______ _______ _____ _____    ______ ____

>  <TORSDO>
F 4

$$$$
=
 OpenBabel07192307433D

 24 24  0  0  0  0  0  0  0  0999 V2000
    3.5340    5.0790   19.2190 C   0  0  0  0  0  0  0  0  0  0  0  0
    2.9530    6.2720   18.7800 C   0  0  0  0  0  0  0  0  0  0  0  0
    3.5460    7.0260   17.7610 C   0  0  0  0  0  0  0  0  0  0  0  0
    4.7270    6.5920   17.1630 C   0  0  0  0  0  0  0  0  0  0  0  0
    5.3020    5.3940   17.5890 C   0  0  0  0  0  0  0  0  0  0  0  0
    4.7190    4.6430   18.6170 C   0  0  0  0  0  0  0  0  0  0  0  0
    2.0330    6.6530   19.2170 H   0  0  0  0  0  0  0  0  0  0  0  0
    3.0810    7.9560   17.4400 H   0  0  0  0  0  0  0  0  0  0  0  0
    5.1870    7.1870   16.3770 H   0  0  0  0  0  0  0  0  0  0  0  0
    5.1960    3.7220   18.9410 H   0  0  0  0  0  0  0  0  0  0  0  0
    1.8730    3.4740   20.1910 C   0  0  0  0  0  0  0  0  0  0  0  0
    1.1180    3.3270   19.2370 O   0  0  0  0  0  0  0  0  0  0  0  0
    3.0020    4.2720   20.2470 N   0  0  0  0  0  0  0  0  0  0  0  0
    3.5000    4.2900   21.1270 H   0  0  0  0  0  0  0  0  0  0  0  0
    1.6100    2.7690   21.4990 C   0  0  0  0  0  0  0  0  0  0  0  0
    0.9130    1.9430   21.3310 H   0  0  0  0  0  0  0  0  0  0  0  0
    1.1930    3.4590   22.2380 H   0  0  0  0  0  0  0  0  0  0  0  0
    2.5500    2.3750   21.8950 H   0  0  0  0  0  0  0  0  0  0  0  0
    6.8150    4.8500   16.8580 S   0  0  0  0  0  0  0  0  0  0  0  0
    6.5170    3.9890   15.7370 O   0  0  0  0  0  0  0  0  0  0  0  0
    7.7390    4.4730   17.9010 O   0  0  0  0  0  0  0  0  0  0  0  0
    7.4120    6.2710   16.1950 N   0  0  0  0  0  0  0  0  0  0  0  0
    7.1700    7.0620   16.7900 H   0  0  0  0  0  0  0  0  0  0  0  0
    7.0880    6.3670   15.2320 H   0  0  0  0  0  0  0  0  0  0  0  0
  1 13  1  0  0  0  0
  2  7  1  0  0  0  0
  2  1  1  0  0  0  0
  3  2  2  0  0  0  0
  4  5  2  0  0  0  0
  4  3  1  0  0  0  0
  5  6  1  0  0  0  0
  6 10  1  0  0  0  0
  6  1  2  0  0  0  0
  8  3  1  0  0  0  0
  9  4  1  0  0  0  0
 11 13  1  0  0  0  0
 11 15  1  0  0  0  0
 12 11  2  0  0  0  0
 13 14  1  0  0  0  0
 15 18  1  0  0  0  0
 15 17  1  0  0  0  0
 16 15  1  0  0  0  0
 19  5  1  0  0  0  0
 19 21  2  0  0  0  0
 20 19  2  0  0  0  0
 22 23  1  0  0  0  0
 22 19  1  0  0  0  0
 24 22  1  0  0  0  0
M  END
>  <MODEL>
2

>  <REMARK>
 VINA RESULT:    -6.271      1.555      1.794
 INTER + INTRA:          -7.235
 INTER:                  -6.997
 INTRA:                  -0.238
 UNBOUND:                 0.136
  Name = 
  4 active torsions:
  status: ('A' for Active; 'I' for Inactive)
    1  A    between atoms: C_1  and  C_2
    2  A    between atoms: N_4  and  C_5
    3  A    between atoms: C_9  and  S_11
    4  A    between atoms: S_11  and  N_14
                            x       y       z     vdW  Elec       q    Type
                         _______ _______ _______ _____ _____    ______ ____

>  <TORSDO>
F 4

$$$$
=
 OpenBabel07192307433D

 24 24  0  0  0  0  0  0  0  0999 V2000
    3.7190    3.4660   18.9150 C   0  0  0  0  0  0  0  0  0  0  0  0
    3.1720    3.4320   17.6280 C   0  0  0  0  0  0  0  0  0  0  0  0
    3.8600    3.9860   16.5420 C   0  0  0  0  0  0  0  0  0  0  0  0
    5.1070    4.5760   16.7290 C   0  0  0  0  0  0  0  0  0  0  0  0
    5.6630    4.5990   18.0080 C   0  0  0  0  0  0  0  0  0  0  0  0
    4.9730    4.0580   19.1010 C   0  0  0  0  0  0  0  0  0  0  0  0
    2.2010    2.9850   17.4340 H   0  0  0  0  0  0  0  0  0  0  0  0
    3.4120    3.9560   15.5510 H   0  0  0  0  0  0  0  0  0  0  0  0
    5.6320    5.0120   15.8820 H   0  0  0  0  0  0  0  0  0  0  0  0
    5.4210    4.1030   20.0900 H   0  0  0  0  0  0  0  0  0  0  0  0
    1.8960    3.3640   20.6320 C   0  0  0  0  0  0  0  0  0  0  0  0
    1.1810    4.2860   20.2560 O   0  0  0  0  0  0  0  0  0  0  0  0
    3.0820    2.9400   20.0580 N   0  0  0  0  0  0  0  0  0  0  0  0
    3.5550    2.1700   20.5140 H   0  0  0  0  0  0  0  0  0  0  0  0
    1.5390    2.5620   21.8600 C   0  0  0  0  0  0  0  0  0  0  0  0
    0.9160    1.7120   21.5690 H   0  0  0  0  0  0  0  0  0  0  0  0
    1.0050    3.1800   22.5870 H   0  0  0  0  0  0  0  0  0  0  0  0
    2.4550    2.1970   22.3330 H   0  0  0  0  0  0  0  0  0  0  0  0
    7.2310    5.3710   18.2610 S   0  0  0  0  0  0  0  0  0  0  0  0
    7.4410    5.5670   19.6770 O   0  0  0  0  0  0  0  0  0  0  0  0
    7.4000    6.4330   17.2970 O   0  0  0  0  0  0  0  0  0  0  0  0
    8.2940    4.1540   17.8070 N   0  0  0  0  0  0  0  0  0  0  0  0
    8.5120    3.5650   18.6090 H   0  0  0  0  0  0  0  0  0  0  0  0
    9.1170    4.5610   17.3610 H   0  0  0  0  0  0  0  0  0  0  0  0
  1  6  1  0  0  0  0
  1 13  1  0  0  0  0
  2  1  2  0  0  0  0
  3  4  2  0  0  0  0
  3  2  1  0  0  0  0
  4  5  1  0  0  0  0
  5 19  1  0  0  0  0
  5  6  2  0  0  0  0
  6 10  1  0  0  0  0
  7  2  1  0  0  0  0
  8  3  1  0  0  0  0
  9  4  1  0  0  0  0
 11 15  1  0  0  0  0
 12 11  2  0  0  0  0
 13 14  1  0  0  0  0
 13 11  1  0  0  0  0
 15 18  1  0  0  0  0
 15 17  1  0  0  0  0
 16 15  1  0  0  0  0
 19 20  2  0  0  0  0
 21 19  2  0  0  0  0
 22 19  1  0  0  0  0
 22 23  1  0  0  0  0
 24 22  1  0  0  0  0
M  END
>  <MODEL>
3

>  <REMARK>
 VINA RESULT:    -6.210      1.869      1.933
 INTER + INTRA:          -7.163
 INTER:                  -6.965
 INTRA:                  -0.199
 UNBOUND:                 0.136
  Name = 
  4 active torsions:
  status: ('A' for Active; 'I' for Inactive)
    1  A    between atoms: C_1  and  C_2
    2  A    between atoms: N_4  and  C_5
    3  A    between atoms: C_9  and  S_11
    4  A    between atoms: S_11  and  N_14
                            x       y       z     vdW  Elec       q    Type
                         _______ _______ _______ _____ _____    ______ ____

>  <TORSDO>
F 4

$$$$
=
 OpenBabel07192307433D

 24 24  0  0  0  0  0  0  0  0999 V2000
    6.4860    6.1530   16.6480 C   0  0  0  0  0  0  0  0  0  0  0  0
    6.7830    5.4190   15.4950 C   0  0  0  0  0  0  0  0  0  0  0  0
    6.2060    4.1630   15.2750 C   0  0  0  0  0  0  0  0  0  0  0  0
    5.3180    3.6270   16.2050 C   0  0  0  0  0  0  0  0  0  0  0  0
    5.0070    4.3630   17.3490 C   0  0  0  0  0  0  0  0  0  0  0  0
    5.5920    5.6140   17.5800 C   0  0  0  0  0  0  0  0  0  0  0  0
    7.4720    5.7950   14.7430 H   0  0  0  0  0  0  0  0  0  0  0  0
    6.4570    3.6060   14.3760 H   0  0  0  0  0  0  0  0  0  0  0  0
    4.8780    2.6480   16.0320 H   0  0  0  0  0  0  0  0  0  0  0  0
    5.3460    6.1600   18.4870 H   0  0  0  0  0  0  0  0  0  0  0  0
    7.9020    7.7400   17.9740 C   0  0  0  0  0  0  0  0  0  0  0  0
    8.3440    6.9840   18.8300 O   0  0  0  0  0  0  0  0  0  0  0  0
    7.0360    7.4180   16.9430 N   0  0  0  0  0  0  0  0  0  0  0  0
    6.7550    8.1760   16.3340 H   0  0  0  0  0  0  0  0  0  0  0  0
    8.2620    9.2050   17.9770 C   0  0  0  0  0  0  0  0  0  0  0  0
    7.8550    9.6760   18.8760 H   0  0  0  0  0  0  0  0  0  0  0  0
    7.8690    9.7060   17.0880 H   0  0  0  0  0  0  0  0  0  0  0  0
    9.3500    9.3120   17.9730 H   0  0  0  0  0  0  0  0  0  0  0  0
    3.9040    3.6800   18.5480 S   0  0  0  0  0  0  0  0  0  0  0  0
    2.9690    2.8000   17.8850 O   0  0  0  0  0  0  0  0  0  0  0  0
    3.4800    4.7210   19.4530 O   0  0  0  0  0  0  0  0  0  0  0  0
    4.9240    2.6800   19.4290 N   0  0  0  0  0  0  0  0  0  0  0  0
    5.3490    1.9870   18.8140 H   0  0  0  0  0  0  0  0  0  0  0  0
    4.4170    2.2750   20.2160 H   0  0  0  0  0  0  0  0  0  0  0  0
  1 13  1  0  0  0  0
  1  6  1  0  0  0  0
  2  1  2  0  0  0  0
  3  2  1  0  0  0  0
  3  4  2  0  0  0  0
  4  5  1  0  0  0  0
  5  6  2  0  0  0  0
  5 19  1  0  0  0  0
  6 10  1  0  0  0  0
  7  2  1  0  0  0  0
  8  3  1  0  0  0  0
  9  4  1  0  0  0  0
 11 15  1  0  0  0  0
 11 12  2  0  0  0  0
 13 11  1  0  0  0  0
 14 13  1  0  0  0  0
 15 16  1  0  0  0  0
 17 15  1  0  0  0  0
 18 15  1  0  0  0  0
 19 22  1  0  0  0  0
 19 21  2  0  0  0  0
 20 19  2  0  0  0  0
 22 24  1  0  0  0  0
 23 22  1  0  0  0  0
M  END
>  <MODEL>
4

>  <REMARK>
 VINA RESULT:    -6.154      2.984      5.488
 INTER + INTRA:          -7.098
 INTER:                  -6.936
 INTRA:                  -0.162
 UNBOUND:                 0.136
  Name = 
  4 active torsions:
  status: ('A' for Active; 'I' for Inactive)
    1  A    between atoms: C_1  and  C_2
    2  A    between atoms: N_4  and  C_5
    3  A    between atoms: C_9  and  S_11
    4  A    between atoms: S_11  and  N_14
                            x       y       z     vdW  Elec       q    Type
                         _______ _______ _______ _____ _____    ______ ____

>  <TORSDO>
F 4

$$$$
=
 OpenBabel07192307433D

 24 24  0  0  0  0  0  0  0  0999 V2000
    3.3150    5.5950   19.1980 C   0  0  0  0  0  0  0  0  0  0  0  0
    2.8000    4.6600   18.2950 C   0  0  0  0  0  0  0  0  0  0  0  0
    3.6430    3.9820   17.4060 C   0  0  0  0  0  0  0  0  0  0  0  0
    5.0130    4.2270   17.4140 C   0  0  0  0  0  0  0  0  0  0  0  0
    5.5330    5.1490   18.3240 C   0  0  0  0  0  0  0  0  0  0  0  0
    4.6930    5.8390   19.2070 C   0  0  0  0  0  0  0  0  0  0  0  0
    1.7380    4.4370   18.2500 H   0  0  0  0  0  0  0  0  0  0  0  0
    3.2200    3.2650   16.7060 H   0  0  0  0  0  0  0  0  0  0  0  0
    5.6620    3.7030   16.7160 H   0  0  0  0  0  0  0  0  0  0  0  0
    5.1200    6.5630   19.8950 H   0  0  0  0  0  0  0  0  0  0  0  0
    1.9730    7.5790   19.9360 C   0  0  0  0  0  0  0  0  0  0  0  0
    2.0710    8.2970   18.9480 O   0  0  0  0  0  0  0  0  0  0  0  0
    2.5290    6.3240   20.1150 N   0  0  0  0  0  0  0  0  0  0  0  0
    2.3620    5.8790   21.0080 H   0  0  0  0  0  0  0  0  0  0  0  0
    1.2060    8.0400   21.1510 C   0  0  0  0  0  0  0  0  0  0  0  0
    1.6370    7.5830   22.0460 H   0  0  0  0  0  0  0  0  0  0  0  0
    0.1490    7.7690   21.0710 H   0  0  0  0  0  0  0  0  0  0  0  0
    1.2730    9.1280   21.2320 H   0  0  0  0  0  0  0  0  0  0  0  0
    7.2660    5.4880   18.3230 S   0  0  0  0  0  0  0  0  0  0  0  0
    7.4840    6.8470   17.8840 O   0  0  0  0  0  0  0  0  0  0  0  0
    7.9710    4.3660   17.7490 O   0  0  0  0  0  0  0  0  0  0  0  0
    7.6240    5.4760   19.9630 N   0  0  0  0  0  0  0  0  0  0  0  0
    6.7650    5.3970   20.5060 H   0  0  0  0  0  0  0  0  0  0  0  0
    8.1860    6.2940   20.2000 H   0  0  0  0  0  0  0  0  0  0  0  0
  1  6  1  0  0  0  0
  1 13  1  0  0  0  0
  2  1  2  0  0  0  0
  3  4  2  0  0  0  0
  3  2  1  0  0  0  0
  4  5  1  0  0  0  0
  5  6  2  0  0  0  0
  6 10  1  0  0  0  0
  7  2  1  0  0  0  0
  8  3  1  0  0  0  0
  9  4  1  0  0  0  0
 11 13  1  0  0  0  0
 11 15  1  0  0  0  0
 12 11  2  0  0  0  0
 13 14  1  0  0  0  0
 15 18  1  0  0  0  0
 15 16  1  0  0  0  0
 17 15  1  0  0  0  0
 19  5  1  0  0  0  0
 19 22  1  0  0  0  0
 20 19  2  0  0  0  0
 21 19  2  0  0  0  0
 22 24  1  0  0  0  0
 22 23  1  0  0  0  0
M  END
>  <MODEL>
5

>  <REMARK>
 VINA RESULT:    -6.123      2.284      2.729
 INTER + INTRA:          -7.061
 INTER:                  -6.810
 INTRA:                  -0.251
 UNBOUND:                 0.136
  Name = 
  4 active torsions:
  status: ('A' for Active; 'I' for Inactive)
    1  A    between atoms: C_1  and  C_2
    2  A    between atoms: N_4  and  C_5
    3  A    between atoms: C_9  and  S_11
    4  A    between atoms: S_11  and  N_14
                            x       y       z     vdW  Elec       q    Type
                         _______ _______ _______ _____ _____    ______ ____

>  <TORSDO>
F 4

$$$$
=
 OpenBabel07192307433D

 24 24  0  0  0  0  0  0  0  0999 V2000
    4.9560    4.5850   16.0200 C   0  0  0  0  0  0  0  0  0  0  0  0
    5.0310    5.9170   16.4370 C   0  0  0  0  0  0  0  0  0  0  0  0
    4.6940    6.2800   17.7460 C   0  0  0  0  0  0  0  0  0  0  0  0
    4.2840    5.3110   18.6580 C   0  0  0  0  0  0  0  0  0  0  0  0
    4.2220    3.9780   18.2510 C   0  0  0  0  0  0  0  0  0  0  0  0
    4.5460    3.6120   16.9380 C   0  0  0  0  0  0  0  0  0  0  0  0
    5.3440    6.7090   15.7610 H   0  0  0  0  0  0  0  0  0  0  0  0
    4.7510    7.3230   18.0470 H   0  0  0  0  0  0  0  0  0  0  0  0
    4.0160    5.6000   19.6720 H   0  0  0  0  0  0  0  0  0  0  0  0
    4.4740    2.5690   16.6410 H   0  0  0  0  0  0  0  0  0  0  0  0
    6.4480    4.3460   14.0200 C   0  0  0  0  0  0  0  0  0  0  0  0
    7.4400    4.9530   14.4060 O   0  0  0  0  0  0  0  0  0  0  0  0
    5.2680    4.1460   14.7160 N   0  0  0  0  0  0  0  0  0  0  0  0
    4.5400    3.6350   14.2340 H   0  0  0  0  0  0  0  0  0  0  0  0
    6.4030    3.7380   12.6400 C   0  0  0  0  0  0  0  0  0  0  0  0
    6.1440    4.5120   11.9120 H   0  0  0  0  0  0  0  0  0  0  0  0
    5.6710    2.9280   12.5940 H   0  0  0  0  0  0  0  0  0  0  0  0
    7.3850    3.3230   12.3940 H   0  0  0  0  0  0  0  0  0  0  0  0
    3.6750    2.7450   19.3920 S   0  0  0  0  0  0  0  0  0  0  0  0
    3.0770    1.6530   18.6590 O   0  0  0  0  0  0  0  0  0  0  0  0
    3.0160    3.3850   20.5050 O   0  0  0  0  0  0  0  0  0  0  0  0
    5.1280    2.1530   19.9870 N   0  0  0  0  0  0  0  0  0  0  0  0
    5.1210    2.1720   21.0060 H   0  0  0  0  0  0  0  0  0  0  0  0
    5.9070    2.6650   19.5710 H   0  0  0  0  0  0  0  0  0  0  0  0
  1  2  2  0  0  0  0
  1  6  1  0  0  0  0
  2  3  1  0  0  0  0
  3  8  1  0  0  0  0
  3  4  2  0  0  0  0
  4  9  1  0  0  0  0
  5  4  1  0  0  0  0
  5 19  1  0  0  0  0
  6  5  2  0  0  0  0
  7  2  1  0  0  0  0
 10  6  1  0  0  0  0
 11 12  2  0  0  0  0
 11 13  1  0  0  0  0
 13  1  1  0  0  0  0
 14 13  1  0  0  0  0
 15 11  1  0  0  0  0
 16 15  1  0  0  0  0
 17 15  1  0  0  0  0
 18 15  1  0  0  0  0
 19 22  1  0  0  0  0
 19 21  2  0  0  0  0
 20 19  2  0  0  0  0
 22 23  1  0  0  0  0
 24 22  1  0  0  0  0
M  END
>  <MODEL>
6

>  <REMARK>
 VINA RESULT:    -6.102      3.397      5.483
 INTER + INTRA:          -7.036
 INTER:                  -6.892
 INTRA:                  -0.145
 UNBOUND:                 0.136
  Name = 
  4 active torsions:
  status: ('A' for Active; 'I' for Inactive)
    1  A    between atoms: C_1  and  C_2
    2  A    between atoms: N_4  and  C_5
    3  A    between atoms: C_9  and  S_11
    4  A    between atoms: S_11  and  N_14
                            x       y       z     vdW  Elec       q    Type
                         _______ _______ _______ _____ _____    ______ ____

>  <TORSDO>
F 4

$$$$
=
 OpenBabel07192307433D

 24 24  0  0  0  0  0  0  0  0999 V2000
    3.4000    5.5070   19.1600 C   0  0  0  0  0  0  0  0  0  0  0  0
    2.9030    4.5220   18.3010 C   0  0  0  0  0  0  0  0  0  0  0  0
    3.7500    3.8560   17.4070 C   0  0  0  0  0  0  0  0  0  0  0  0
    5.1080    4.1630   17.3660 C   0  0  0  0  0  0  0  0  0  0  0  0
    5.6100    5.1340   18.2320 C   0  0  0  0  0  0  0  0  0  0  0  0
    4.7650    5.8130   19.1190 C   0  0  0  0  0  0  0  0  0  0  0  0
    1.8510    4.2500   18.2950 H   0  0  0  0  0  0  0  0  0  0  0  0
    3.3410    3.0980   16.7420 H   0  0  0  0  0  0  0  0  0  0  0  0
    5.7590    3.6470   16.6640 H   0  0  0  0  0  0  0  0  0  0  0  0
    5.1790    6.5770   19.7710 H   0  0  0  0  0  0  0  0  0  0  0  0
    2.0390    7.4770   19.9000 C   0  0  0  0  0  0  0  0  0  0  0  0
    2.1270    8.1950   18.9110 O   0  0  0  0  0  0  0  0  0  0  0  0
    2.6080    6.2280   20.0780 N   0  0  0  0  0  0  0  0  0  0  0  0
    2.4480    5.7810   20.9710 H   0  0  0  0  0  0  0  0  0  0  0  0
    1.2700    7.9290   21.1160 C   0  0  0  0  0  0  0  0  0  0  0  0
    1.1870    7.0980   21.8220 H   0  0  0  0  0  0  0  0  0  0  0  0
    0.2710    8.2790   20.8390 H   0  0  0  0  0  0  0  0  0  0  0  0
    1.7990    8.7590   21.5930 H   0  0  0  0  0  0  0  0  0  0  0  0
    7.3250    5.5520   18.1680 S   0  0  0  0  0  0  0  0  0  0  0  0
    7.8290    5.6970   19.5140 O   0  0  0  0  0  0  0  0  0  0  0  0
    7.5340    6.5540   17.1500 O   0  0  0  0  0  0  0  0  0  0  0  0
    8.0060    4.1360   17.5770 N   0  0  0  0  0  0  0  0  0  0  0  0
    7.7290    3.9950   16.6060 H   0  0  0  0  0  0  0  0  0  0  0  0
    7.7670    3.3550   18.1890 H   0  0  0  0  0  0  0  0  0  0  0  0
  1 13  1  0  0  0  0
  2  1  2  0  0  0  0
  3  2  1  0  0  0  0
  4  3  2  0  0  0  0
  4  5  1  0  0  0  0
  5  6  2  0  0  0  0
  6  1  1  0  0  0  0
  6 10  1  0  0  0  0
  7  2  1  0  0  0  0
  8  3  1  0  0  0  0
  9  4  1  0  0  0  0
 11 13  1  0  0  0  0
 11 15  1  0  0  0  0
 12 11  2  0  0  0  0
 13 14  1  0  0  0  0
 15 18  1  0  0  0  0
 15 16  1  0  0  0  0
 17 15  1  0  0  0  0
 19  5  1  0  0  0  0
 19 20  2  0  0  0  0
 21 19  2  0  0  0  0
 22 19  1  0  0  0  0
 22 24  1  0  0  0  0
 23 22  1  0  0  0  0
M  END
>  <MODEL>
7

>  <REMARK>
 VINA RESULT:    -6.099      2.445      2.902
 INTER + INTRA:          -7.033
 INTER:                  -6.782
 INTRA:                  -0.251
 UNBOUND:                 0.136
  Name = 
  4 active torsions:
  status: ('A' for Active; 'I' for Inactive)
    1  A    between atoms: C_1  and  C_2
    2  A    between atoms: N_4  and  C_5
    3  A    between atoms: C_9  and  S_11
    4  A    between atoms: S_11  and  N_14
                            x       y       z     vdW  Elec       q    Type
                         _______ _______ _______ _____ _____    ______ ____

>  <TORSDO>
F 4

$$$$
=
 OpenBabel07192307433D

 24 24  0  0  0  0  0  0  0  0999 V2000
    4.0490    5.1470   17.3850 C   0  0  0  0  0  0  0  0  0  0  0  0
    3.7020    6.4280   17.8270 C   0  0  0  0  0  0  0  0  0  0  0  0
    2.8750    6.6020   18.9430 C   0  0  0  0  0  0  0  0  0  0  0  0
    2.3900    5.4960   19.6350 C   0  0  0  0  0  0  0  0  0  0  0  0
    2.7460    4.2170   19.2070 C   0  0  0  0  0  0  0  0  0  0  0  0
    3.5630    4.0370   18.0840 C   0  0  0  0  0  0  0  0  0  0  0  0
    4.0540    7.3210   17.3170 H   0  0  0  0  0  0  0  0  0  0  0  0
    2.6110    7.6070   19.2640 H   0  0  0  0  0  0  0  0  0  0  0  0
    1.7410    5.6380   20.4970 H   0  0  0  0  0  0  0  0  0  0  0  0
    3.8120    3.0300   17.7610 H   0  0  0  0  0  0  0  0  0  0  0  0
    6.2190    4.5930   16.2590 C   0  0  0  0  0  0  0  0  0  0  0  0
    6.9590    4.5030   17.2310 O   0  0  0  0  0  0  0  0  0  0  0  0
    4.8670    4.8930   16.2650 N   0  0  0  0  0  0  0  0  0  0  0  0
    4.4120    4.9460   15.3620 H   0  0  0  0  0  0  0  0  0  0  0  0
    6.7520    4.3990   14.8610 C   0  0  0  0  0  0  0  0  0  0  0  0
    7.3270    5.2820   14.5670 H   0  0  0  0  0  0  0  0  0  0  0  0
    5.9360    4.2370   14.1510 H   0  0  0  0  0  0  0  0  0  0  0  0
    7.4010    3.5190   14.8390 H   0  0  0  0  0  0  0  0  0  0  0  0
    2.1130    2.8070   20.0620 S   0  0  0  0  0  0  0  0  0  0  0  0
    2.7720    2.6920   21.3420 O   0  0  0  0  0  0  0  0  0  0  0  0
    2.0080    1.7000   19.1410 O   0  0  0  0  0  0  0  0  0  0  0  0
    0.5400    3.2840   20.4010 N   0  0  0  0  0  0  0  0  0  0  0  0
    0.4800    3.6320   21.3570 H   0  0  0  0  0  0  0  0  0  0  0  0
   -0.1050    2.5180   20.2020 H   0  0  0  0  0  0  0  0  0  0  0  0
  1  2  2  0  0  0  0
  1  6  1  0  0  0  0
  2  3  1  0  0  0  0
  3  8  1  0  0  0  0
  3  4  2  0  0  0  0
  4  9  1  0  0  0  0
  5  4  1  0  0  0  0
  5 19  1  0  0  0  0
  6  5  2  0  0  0  0
  7  2  1  0  0  0  0
 10  6  1  0  0  0  0
 11 13  1  0  0  0  0
 11 12  2  0  0  0  0
 13  1  1  0  0  0  0
 14 13  1  0  0  0  0
 15 11  1  0  0  0  0
 16 15  1  0  0  0  0
 17 15  1  0  0  0  0
 18 15  1  0  0  0  0
 19 22  1  0  0  0  0
 19 20  2  0  0  0  0
 21 19  2  0  0  0  0
 22 23  1  0  0  0  0
 24 22  1  0  0  0  0
M  END
>  <MODEL>
8

>  <REMARK>
 VINA RESULT:    -6.024      2.742      5.272
 INTER + INTRA:          -6.945
 INTER:                  -6.699
 INTRA:                  -0.246
 UNBOUND:                 0.136
  Name = 
  4 active torsions:
  status: ('A' for Active; 'I' for Inactive)
    1  A    between atoms: C_1  and  C_2
    2  A    between atoms: N_4  and  C_5
    3  A    between atoms: C_9  and  S_11
    4  A    between atoms: S_11  and  N_14
                            x       y       z     vdW  Elec       q    Type
                         _______ _______ _______ _____ _____    ______ ____

>  <TORSDO>
F 4

$$$$
=
 OpenBabel07192307433D

 24 24  0  0  0  0  0  0  0  0999 V2000
    6.0650    4.0160   16.0410 C   0  0  0  0  0  0  0  0  0  0  0  0
    7.2290    4.4720   16.6670 C   0  0  0  0  0  0  0  0  0  0  0  0
    7.2020    4.9140   17.9950 C   0  0  0  0  0  0  0  0  0  0  0  0
    6.0110    4.8980   18.7170 C   0  0  0  0  0  0  0  0  0  0  0  0
    4.8510    4.4280   18.1000 C   0  0  0  0  0  0  0  0  0  0  0  0
    4.8690    3.9980   16.7670 C   0  0  0  0  0  0  0  0  0  0  0  0
    8.1810    4.5060   16.1450 H   0  0  0  0  0  0  0  0  0  0  0  0
    8.1180    5.2730   18.4610 H   0  0  0  0  0  0  0  0  0  0  0  0
    5.9960    5.2490   19.7460 H   0  0  0  0  0  0  0  0  0  0  0  0
    3.9480    3.6530   16.3050 H   0  0  0  0  0  0  0  0  0  0  0  0
    6.6130    4.1410   13.5990 C   0  0  0  0  0  0  0  0  0  0  0  0
    7.2990    5.1560   13.5740 O   0  0  0  0  0  0  0  0  0  0  0  0
    6.0110    3.5670   14.7050 N   0  0  0  0  0  0  0  0  0  0  0  0
    5.4600    2.7350   14.5390 H   0  0  0  0  0  0  0  0  0  0  0  0
    6.3140    3.3810   12.3300 C   0  0  0  0  0  0  0  0  0  0  0  0
    6.5650    4.0040   11.4670 H   0  0  0  0  0  0  0  0  0  0  0  0
    5.2600    3.0950   12.2850 H   0  0  0  0  0  0  0  0  0  0  0  0
    6.9150    2.4670   12.3040 H   0  0  0  0  0  0  0  0  0  0  0  0
    3.3290    4.4310   18.9960 S   0  0  0  0  0  0  0  0  0  0  0  0
    3.3260    3.3280   19.9300 O   0  0  0  0  0  0  0  0  0  0  0  0
    2.2380    4.6750   18.0830 O   0  0  0  0  0  0  0  0  0  0  0  0
    3.4770    5.8170   19.9300 N   0  0  0  0  0  0  0  0  0  0  0  0
    2.7950    6.5130   19.6310 H   0  0  0  0  0  0  0  0  0  0  0  0
    4.4420    6.1510   19.9040 H   0  0  0  0  0  0  0  0  0  0  0  0
  1  2  2  0  0  0  0
  1  6  1  0  0  0  0
  2  3  1  0  0  0  0
  3  8  1  0  0  0  0
  3  4  2  0  0  0  0
  4  9  1  0  0  0  0
  5  4  1  0  0  0  0
  5 19  1  0  0  0  0
  6  5  2  0  0  0  0
  7  2  1  0  0  0  0
 10  6  1  0  0  0  0
 11 13  1  0  0  0  0
 12 11  2  0  0  0  0
 13  1  1  0  0  0  0
 14 13  1  0  0  0  0
 15 11  1  0  0  0  0
 16 15  1  0  0  0  0
 17 15  1  0  0  0  0
 18 15  1  0  0  0  0
 19 20  2  0  0  0  0
 19 22  1  0  0  0  0
 21 19  2  0  0  0  0
 23 22  1  0  0  0  0
 24 22  1  0  0  0  0
M  END
>  <MODEL>
9

>  <REMARK>
 VINA RESULT:    -5.992      3.562      5.732
 INTER + INTRA:          -6.906
 INTER:                  -6.851
 INTRA:                  -0.056
 UNBOUND:                 0.136
  Name = 
  4 active torsions:
  status: ('A' for Active; 'I' for Inactive)
    1  A    between atoms: C_1  and  C_2
    2  A    between atoms: N_4  and  C_5
    3  A    between atoms: C_9  and  S_11
    4  A    between atoms: S_11  and  N_14
                            x       y       z     vdW  Elec       q    Type
                         _______ _______ _______ _____ _____    ______ ____

>  <TORSDO>
F 4

$$$$
=
 OpenBabel07192307433D

 24 24  0  0  0  0  0  0  0  0999 V2000
    4.6840    5.0810   17.9790 C   0  0  0  0  0  0  0  0  0  0  0  0
    4.5850    3.9650   17.1420 C   0  0  0  0  0  0  0  0  0  0  0  0
    3.6510    2.9560   17.4000 C   0  0  0  0  0  0  0  0  0  0  0  0
    2.7980    3.0530   18.4970 C   0  0  0  0  0  0  0  0  0  0  0  0
    2.8830    4.1720   19.3250 C   0  0  0  0  0  0  0  0  0  0  0  0
    3.8250    5.1790   19.0790 C   0  0  0  0  0  0  0  0  0  0  0  0
    5.2310    3.8440   16.2760 H   0  0  0  0  0  0  0  0  0  0  0  0
    3.5970    2.0920   16.7410 H   0  0  0  0  0  0  0  0  0  0  0  0
    2.0790    2.2610   18.6960 H   0  0  0  0  0  0  0  0  0  0  0  0
    3.8820    6.0330   19.7490 H   0  0  0  0  0  0  0  0  0  0  0  0
    6.9840    6.0760   17.9170 C   0  0  0  0  0  0  0  0  0  0  0  0
    7.6580    5.1020   18.2300 O   0  0  0  0  0  0  0  0  0  0  0  0
    5.6060    6.1310   17.7900 N   0  0  0  0  0  0  0  0  0  0  0  0
    5.2110    7.0290   17.5420 H   0  0  0  0  0  0  0  0  0  0  0  0
    7.6340    7.4110   17.6500 C   0  0  0  0  0  0  0  0  0  0  0  0
    8.4750    7.5480   18.3340 H   0  0  0  0  0  0  0  0  0  0  0  0
    6.9170    8.2270   17.7790 H   0  0  0  0  0  0  0  0  0  0  0  0
    7.9960    7.4380   16.6180 H   0  0  0  0  0  0  0  0  0  0  0  0
    1.8250    4.2910   20.7350 S   0  0  0  0  0  0  0  0  0  0  0  0
    1.3290    5.6440   20.8430 O   0  0  0  0  0  0  0  0  0  0  0  0
    2.4330    3.5980   21.8460 O   0  0  0  0  0  0  0  0  0  0  0  0
    0.5110    3.3600   20.2640 N   0  0  0  0  0  0  0  0  0  0  0  0
   -0.1740    3.3180   21.0170 H   0  0  0  0  0  0  0  0  0  0  0  0
    0.8310    2.4440   19.9480 H   0  0  0  0  0  0  0  0  0  0  0  0
  1  6  1  0  0  0  0
  2  3  1  0  0  0  0
  2  1  2  0  0  0  0
  3  4  2  0  0  0  0
  4  9  1  0  0  0  0
  4  5  1  0  0  0  0
  5 19  1  0  0  0  0
  6  5  2  0  0  0  0
  6 10  1  0  0  0  0
  7  2  1  0  0  0  0
  8  3  1  0  0  0  0
 11 12  2  0  0  0  0
 13 11  1  0  0  0  0
 13  1  1  0  0  0  0
 14 13  1  0  0  0  0
 15 17  1  0  0  0  0
 15 11  1  0  0  0  0
 15 16  1  0  0  0  0
 18 15  1  0  0  0  0
 19 20  2  0  0  0  0
 19 21  2  0  0  0  0
 22 19  1  0  0  0  0
 22 23  1  0  0  0  0
 24 22  1  0  0  0  0
M  END
>  <MODEL>
10

>  <REMARK>
 VINA RESULT:    -5.939      2.801      5.419
 INTER + INTRA:          -6.844
 INTER:                  -6.621
 INTRA:                  -0.224
 UNBOUND:                 0.136
  Name = 
  4 active torsions:
  status: ('A' for Active; 'I' for Inactive)
    1  A    between atoms: C_1  and  C_2
    2  A    between atoms: N_4  and  C_5
    3  A    between atoms: C_9  and  S_11
    4  A    between atoms: S_11  and  N_14
                            x       y       z     vdW  Elec       q    Type
                         _______ _______ _______ _____ _____    ______ ____

>  <TORSDO>
F 4

$$$$
=
 OpenBabel07192307433D

 24 24  0  0  0  0  0  0  0  0999 V2000
    1.9300    6.8700   20.2760 C   0  0  0  0  0  0  0  0  0  0  0  0
    2.4410    7.3180   19.0540 C   0  0  0  0  0  0  0  0  0  0  0  0
    2.7040    6.4190   18.0140 C   0  0  0  0  0  0  0  0  0  0  0  0
    2.4540    5.0590   18.1820 C   0  0  0  0  0  0  0  0  0  0  0  0
    1.9290    4.6110   19.3940 C   0  0  0  0  0  0  0  0  0  0  0  0
    1.6760    5.5040   20.4420 C   0  0  0  0  0  0  0  0  0  0  0  0
    2.6550    8.3690   18.8760 H   0  0  0  0  0  0  0  0  0  0  0  0
    3.1100    6.7880   17.0740 H   0  0  0  0  0  0  0  0  0  0  0  0
    2.6680    4.3650   17.3730 H   0  0  0  0  0  0  0  0  0  0  0  0
    1.2840    5.1270   21.3830 H   0  0  0  0  0  0  0  0  0  0  0  0
    0.7280    8.7440   21.4270 C   0  0  0  0  0  0  0  0  0  0  0  0
   -0.0130    9.1220   20.5280 O   0  0  0  0  0  0  0  0  0  0  0  0
    1.6500    7.7130   21.3720 N   0  0  0  0  0  0  0  0  0  0  0  0
    2.1960    7.5490   22.2080 H   0  0  0  0  0  0  0  0  0  0  0  0
    0.7240    9.4320   22.7700 C   0  0  0  0  0  0  0  0  0  0  0  0
    0.2190   10.3970   22.6810 H   0  0  0  0  0  0  0  0  0  0  0  0
    1.7450    9.5820   23.1350 H   0  0  0  0  0  0  0  0  0  0  0  0
    0.1930    8.8090   23.4960 H   0  0  0  0  0  0  0  0  0  0  0  0
    1.6350    2.8850   19.6280 S   0  0  0  0  0  0  0  0  0  0  0  0
    2.9010    2.1960   19.7250 O   0  0  0  0  0  0  0  0  0  0  0  0
    0.5860    2.4550   18.7330 O   0  0  0  0  0  0  0  0  0  0  0  0
    0.9770    2.8500   21.1710 N   0  0  0  0  0  0  0  0  0  0  0  0
    1.7210    2.8510   21.8670 H   0  0  0  0  0  0  0  0  0  0  0  0
    0.3360    2.0600   21.2570 H   0  0  0  0  0  0  0  0  0  0  0  0
  1  6  1  0  0  0  0
  1 13  1  0  0  0  0
  2  1  2  0  0  0  0
  3  4  2  0  0  0  0
  3  2  1  0  0  0  0
  4  5  1  0  0  0  0
  5 19  1  0  0  0  0
  5  6  2  0  0  0  0
  6 10  1  0  0  0  0
  7  2  1  0  0  0  0
  8  3  1  0  0  0  0
  9  4  1  0  0  0  0
 11 15  1  0  0  0  0
 12 11  2  0  0  0  0
 13 11  1  0  0  0  0
 13 14  1  0  0  0  0
 15 17  1  0  0  0  0
 15 18  1  0  0  0  0
 16 15  1  0  0  0  0
 19 20  2  0  0  0  0
 19 22  1  0  0  0  0
 21 19  2  0  0  0  0
 22 24  1  0  0  0  0
 22 23  1  0  0  0  0
M  END
>  <MODEL>
11

>  <REMARK>
 VINA RESULT:    -5.837      3.949      5.367
 INTER + INTRA:          -6.725
 INTER:                  -6.532
 INTRA:                  -0.193
 UNBOUND:                 0.136
  Name = 
  4 active torsions:
  status: ('A' for Active; 'I' for Inactive)
    1  A    between atoms: C_1  and  C_2
    2  A    between atoms: N_4  and  C_5
    3  A    between atoms: C_9  and  S_11
    4  A    between atoms: S_11  and  N_14
                            x       y       z     vdW  Elec       q    Type
                         _______ _______ _______ _____ _____    ______ ____

>  <TORSDO>
F 4

$$$$
=
 OpenBabel07192307433D

 24 24  0  0  0  0  0  0  0  0999 V2000
    3.2230    5.7550   18.1880 C   0  0  0  0  0  0  0  0  0  0  0  0
    2.5010    4.6150   17.8220 C   0  0  0  0  0  0  0  0  0  0  0  0
    3.1110    3.5770   17.1080 C   0  0  0  0  0  0  0  0  0  0  0  0
    4.4560    3.6640   16.7570 C   0  0  0  0  0  0  0  0  0  0  0  0
    5.1850    4.7920   17.1340 C   0  0  0  0  0  0  0  0  0  0  0  0
    4.5750    5.8400   17.8370 C   0  0  0  0  0  0  0  0  0  0  0  0
    1.4490    4.5040   18.0700 H   0  0  0  0  0  0  0  0  0  0  0  0
    2.5280    2.7040   16.8250 H   0  0  0  0  0  0  0  0  0  0  0  0
    4.9230    2.8580   16.1960 H   0  0  0  0  0  0  0  0  0  0  0  0
    5.1610    6.7150   18.1040 H   0  0  0  0  0  0  0  0  0  0  0  0
    2.0180    6.8120   20.1140 C   0  0  0  0  0  0  0  0  0  0  0  0
    1.7820    5.8250   20.8010 O   0  0  0  0  0  0  0  0  0  0  0  0
    2.6750    6.8440   18.8960 N   0  0  0  0  0  0  0  0  0  0  0  0
    2.7660    7.7510   18.4550 H   0  0  0  0  0  0  0  0  0  0  0  0
    1.5590    8.1820   20.5490 C   0  0  0  0  0  0  0  0  0  0  0  0
    0.5960    8.0960   21.0600 H   0  0  0  0  0  0  0  0  0  0  0  0
    1.4620    8.8520   19.6900 H   0  0  0  0  0  0  0  0  0  0  0  0
    2.2950    8.6120   21.2340 H   0  0  0  0  0  0  0  0  0  0  0  0
    6.8840    4.9250   16.6690 S   0  0  0  0  0  0  0  0  0  0  0  0
    7.0430    4.4470   15.3150 O   0  0  0  0  0  0  0  0  0  0  0  0
    7.7120    4.4630   17.7570 O   0  0  0  0  0  0  0  0  0  0  0  0
    7.0940    6.5880   16.5930 N   0  0  0  0  0  0  0  0  0  0  0  0
    7.9560    6.8080   16.0940 H   0  0  0  0  0  0  0  0  0  0  0  0
    7.0510    6.9860   17.5320 H   0  0  0  0  0  0  0  0  0  0  0  0
  1 13  1  0  0  0  0
  2  7  1  0  0  0  0
  2  1  2  0  0  0  0
  3  2  1  0  0  0  0
  4  3  2  0  0  0  0
  4  5  1  0  0  0  0
  5  6  2  0  0  0  0
  6 10  1  0  0  0  0
  6  1  1  0  0  0  0
  8  3  1  0  0  0  0
  9  4  1  0  0  0  0
 11 15  1  0  0  0  0
 11 12  2  0  0  0  0
 13 11  1  0  0  0  0
 14 13  1  0  0  0  0
 15 16  1  0  0  0  0
 15 18  1  0  0  0  0
 17 15  1  0  0  0  0
 19  5  1  0  0  0  0
 19 21  2  0  0  0  0
 20 19  2  0  0  0  0
 22 19  1  0  0  0  0
 22 24  1  0  0  0  0
 23 22  1  0  0  0  0
M  END
>  <MODEL>
12

>  <REMARK>
 VINA RESULT:    -5.836      2.501      3.072
 INTER + INTRA:          -6.724
 INTER:                  -6.576
 INTRA:                  -0.148
 UNBOUND:                 0.136
  Name = 
  4 active torsions:
  status: ('A' for Active; 'I' for Inactive)
    1  A    between atoms: C_1  and  C_2
    2  A    between atoms: N_4  and  C_5
    3  A    between atoms: C_9  and  S_11
    4  A    between atoms: S_11  and  N_14
                            x       y       z     vdW  Elec       q    Type
                         _______ _______ _______ _____ _____    ______ ____

>  <TORSDO>
F 4

$$$$
=
 OpenBabel07192307433D

 24 24  0  0  0  0  0  0  0  0999 V2000
    2.3070    6.5700   20.0010 C   0  0  0  0  0  0  0  0  0  0  0  0
    2.6590    6.9790   18.7110 C   0  0  0  0  0  0  0  0  0  0  0  0
    3.1800    6.0670   17.7860 C   0  0  0  0  0  0  0  0  0  0  0  0
    3.3500    4.7300   18.1390 C   0  0  0  0  0  0  0  0  0  0  0  0
    2.9850    4.3150   19.4200 C   0  0  0  0  0  0  0  0  0  0  0  0
    2.4760    5.2260   20.3530 C   0  0  0  0  0  0  0  0  0  0  0  0
    2.5480    8.0120   18.3910 H   0  0  0  0  0  0  0  0  0  0  0  0
    3.4560    6.4080   16.7910 H   0  0  0  0  0  0  0  0  0  0  0  0
    3.7620    4.0280   17.4180 H   0  0  0  0  0  0  0  0  0  0  0  0
    2.2140    4.8800   21.3500 H   0  0  0  0  0  0  0  0  0  0  0  0
    1.1560    8.6480   20.7980 C   0  0  0  0  0  0  0  0  0  0  0  0
    0.9400    9.2090   19.7300 O   0  0  0  0  0  0  0  0  0  0  0  0
    1.7880    7.4320   20.9890 N   0  0  0  0  0  0  0  0  0  0  0  0
    1.9000    7.1260   21.9480 H   0  0  0  0  0  0  0  0  0  0  0  0
    0.7500    9.2900   22.1020 C   0  0  0  0  0  0  0  0  0  0  0  0
   -0.2020    9.8110   21.9690 H   0  0  0  0  0  0  0  0  0  0  0  0
    1.5120    9.9960   22.4440 H   0  0  0  0  0  0  0  0  0  0  0  0
    0.6370    8.5160   22.8670 H   0  0  0  0  0  0  0  0  0  0  0  0
    3.2230    2.6270   19.8860 S   0  0  0  0  0  0  0  0  0  0  0  0
    2.5880    1.7720   18.9100 O   0  0  0  0  0  0  0  0  0  0  0  0
    2.9940    2.4890   21.3040 O   0  0  0  0  0  0  0  0  0  0  0  0
    4.8740    2.4330   19.6570 N   0  0  0  0  0  0  0  0  0  0  0  0
    5.3010    3.3280   19.4230 H   0  0  0  0  0  0  0  0  0  0  0  0
    5.0440    1.7040   18.9630 H   0  0  0  0  0  0  0  0  0  0  0  0
  1  6  1  0  0  0  0
  1 13  1  0  0  0  0
  2  1  2  0  0  0  0
  3  4  2  0  0  0  0
  3  2  1  0  0  0  0
  4  5  1  0  0  0  0
  5 19  1  0  0  0  0
  5  6  2  0  0  0  0
  6 10  1  0  0  0  0
  7  2  1  0  0  0  0
  8  3  1  0  0  0  0
  9  4  1  0  0  0  0
 11 13  1  0  0  0  0
 11 15  1  0  0  0  0
 12 11  2  0  0  0  0
 13 14  1  0  0  0  0
 15 17  1  0  0  0  0
 15 18  1  0  0  0  0
 16 15  1  0  0  0  0
 19 21  2  0  0  0  0
 20 19  2  0  0  0  0
 22 19  1  0  0  0  0
 23 22  1  0  0  0  0
 24 22  1  0  0  0  0
M  END
>  <MODEL>
13

>  <REMARK>
 VINA RESULT:    -5.732      3.546      4.705
 INTER + INTRA:          -6.601
 INTER:                  -6.713
 INTRA:                   0.112
 UNBOUND:                 0.136
  Name = 
  4 active torsions:
  status: ('A' for Active; 'I' for Inactive)
    1  A    between atoms: C_1  and  C_2
    2  A    between atoms: N_4  and  C_5
    3  A    between atoms: C_9  and  S_11
    4  A    between atoms: S_11  and  N_14
                            x       y       z     vdW  Elec       q    Type
                         _______ _______ _______ _____ _____    ______ ____

>  <TORSDO>
F 4

$$$$
=
 OpenBabel07192307433D

 24 24  0  0  0  0  0  0  0  0999 V2000
    1.9660    5.5710   20.3320 C   0  0  0  0  0  0  0  0  0  0  0  0
    1.1520    4.4350   20.2780 C   0  0  0  0  0  0  0  0  0  0  0  0
    1.4820    3.3560   19.4500 C   0  0  0  0  0  0  0  0  0  0  0  0
    2.6350    3.3970   18.6690 C   0  0  0  0  0  0  0  0  0  0  0  0
    3.4570    4.5230   18.7320 C   0  0  0  0  0  0  0  0  0  0  0  0
    3.1250    5.6100   19.5490 C   0  0  0  0  0  0  0  0  0  0  0  0
    0.2420    4.3570   20.8670 H   0  0  0  0  0  0  0  0  0  0  0  0
    0.8310    2.4850   19.4160 H   0  0  0  0  0  0  0  0  0  0  0  0
    2.8810    2.5590   18.0220 H   0  0  0  0  0  0  0  0  0  0  0  0
    3.7730    6.4820   19.5680 H   0  0  0  0  0  0  0  0  0  0  0  0
    1.5260    8.0090   20.7140 C   0  0  0  0  0  0  0  0  0  0  0  0
    1.5940    8.4310   19.5660 O   0  0  0  0  0  0  0  0  0  0  0  0
    1.6930    6.7000   21.1330 N   0  0  0  0  0  0  0  0  0  0  0  0
    1.6230    6.5310   22.1280 H   0  0  0  0  0  0  0  0  0  0  0  0
    1.2620    8.9450   21.8680 C   0  0  0  0  0  0  0  0  0  0  0  0
    2.1710    9.0460   22.4670 H   0  0  0  0  0  0  0  0  0  0  0  0
    0.4470    8.5730   22.4940 H   0  0  0  0  0  0  0  0  0  0  0  0
    0.9720    9.9260   21.4800 H   0  0  0  0  0  0  0  0  0  0  0  0
    4.9060    4.5970   17.7240 S   0  0  0  0  0  0  0  0  0  0  0  0
    5.2830    5.9790   17.5370 O   0  0  0  0  0  0  0  0  0  0  0  0
    4.7670    3.6750   16.6220 O   0  0  0  0  0  0  0  0  0  0  0  0
    6.0700    3.9410   18.7400 N   0  0  0  0  0  0  0  0  0  0  0  0
    6.9910    4.0210   18.3110 H   0  0  0  0  0  0  0  0  0  0  0  0
    5.8140    2.9850   18.9880 H   0  0  0  0  0  0  0  0  0  0  0  0
  1 13  1  0  0  0  0
  2  1  1  0  0  0  0
  2  7  1  0  0  0  0
  3  2  2  0  0  0  0
  4  5  2  0  0  0  0
  4  3  1  0  0  0  0
  5  6  1  0  0  0  0
  6 10  1  0  0  0  0
  6  1  2  0  0  0  0
  8  3  1  0  0  0  0
  9  4  1  0  0  0  0
 11 13  1  0  0  0  0
 11 15  1  0  0  0  0
 12 11  2  0  0  0  0
 13 14  1  0  0  0  0
 15 16  1  0  0  0  0
 15 17  1  0  0  0  0
 18 15  1  0  0  0  0
 19  5  1  0  0  0  0
 19 22  1  0  0  0  0
 20 19  2  0  0  0  0
 21 19  2  0  0  0  0
 22 24  1  0  0  0  0
 23 22  1  0  0  0  0
M  END
>  <MODEL>
14

>  <REMARK>
 VINA RESULT:    -5.703      3.030      3.826
 INTER + INTRA:          -6.567
 INTER:                  -6.476
 INTRA:                  -0.091
 UNBOUND:                 0.136
  Name = 
  4 active torsions:
  status: ('A' for Active; 'I' for Inactive)
    1  A    between atoms: C_1  and  C_2
    2  A    between atoms: N_4  and  C_5
    3  A    between atoms: C_9  and  S_11
    4  A    between atoms: S_11  and  N_14
                            x       y       z     vdW  Elec       q    Type
                         _______ _______ _______ _____ _____    ______ ____

>  <TORSDO>
F 4

$$$$
=
 OpenBabel07192307433D

 24 24  0  0  0  0  0  0  0  0999 V2000
    3.3660    6.1080   18.3720 C   0  0  0  0  0  0  0  0  0  0  0  0
    4.7300    5.8280   18.2440 C   0  0  0  0  0  0  0  0  0  0  0  0
    5.2610    4.6210   18.7140 C   0  0  0  0  0  0  0  0  0  0  0  0
    4.4330    3.6760   19.3140 C   0  0  0  0  0  0  0  0  0  0  0  0
    3.0690    3.9460   19.4290 C   0  0  0  0  0  0  0  0  0  0  0  0
    2.5340    5.1570   18.9720 C   0  0  0  0  0  0  0  0  0  0  0  0
    5.4160    6.5350   17.7860 H   0  0  0  0  0  0  0  0  0  0  0  0
    6.3270    4.4270   18.6120 H   0  0  0  0  0  0  0  0  0  0  0  0
    4.8530    2.7440   19.6840 H   0  0  0  0  0  0  0  0  0  0  0  0
    1.4710    5.3490   19.0890 H   0  0  0  0  0  0  0  0  0  0  0  0
    2.0830    8.2360   18.7010 C   0  0  0  0  0  0  0  0  0  0  0  0
    1.8740    8.1880   19.9070 O   0  0  0  0  0  0  0  0  0  0  0  0
    2.7600    7.3040   17.9330 N   0  0  0  0  0  0  0  0  0  0  0  0
    2.8220    7.4950   16.9410 H   0  0  0  0  0  0  0  0  0  0  0  0
    1.5600    9.3830   17.8720 C   0  0  0  0  0  0  0  0  0  0  0  0
    0.6970    9.8290   18.3740 H   0  0  0  0  0  0  0  0  0  0  0  0
    1.2710    9.0430   16.8730 H   0  0  0  0  0  0  0  0  0  0  0  0
    2.3440   10.1370   17.7590 H   0  0  0  0  0  0  0  0  0  0  0  0
    2.0140    2.7650   20.2140 S   0  0  0  0  0  0  0  0  0  0  0  0
    2.4850    2.5280   21.5590 O   0  0  0  0  0  0  0  0  0  0  0  0
    1.7310    1.6920   19.2910 O   0  0  0  0  0  0  0  0  0  0  0  0
    0.5850    3.6310   20.3770 N   0  0  0  0  0  0  0  0  0  0  0  0
   -0.2080    2.9910   20.4090 H   0  0  0  0  0  0  0  0  0  0  0  0
    0.5180    4.3320   19.6390 H   0  0  0  0  0  0  0  0  0  0  0  0
  1  6  1  0  0  0  0
  2  1  2  0  0  0  0
  2  3  1  0  0  0  0
  3  4  2  0  0  0  0
  4  5  1  0  0  0  0
  4  9  1  0  0  0  0
  5 19  1  0  0  0  0
  6 10  1  0  0  0  0
  6  5  2  0  0  0  0
  7  2  1  0  0  0  0
  8  3  1  0  0  0  0
 11 12  2  0  0  0  0
 13  1  1  0  0  0  0
 13 11  1  0  0  0  0
 14 13  1  0  0  0  0
 15 16  1  0  0  0  0
 15 11  1  0  0  0  0
 17 15  1  0  0  0  0
 18 15  1  0  0  0  0
 19 22  1  0  0  0  0
 19 20  2  0  0  0  0
 21 19  2  0  0  0  0
 22 23  1  0  0  0  0
 24 22  1  0  0  0  0
M  END
>  <MODEL>
15

>  <REMARK>
 VINA RESULT:    -5.635      3.644      5.228
 INTER + INTRA:          -6.487
 INTER:                  -6.366
 INTRA:                  -0.121
 UNBOUND:                 0.136
  Name = 
  4 active torsions:
  status: ('A' for Active; 'I' for Inactive)
    1  A    between atoms: C_1  and  C_2
    2  A    between atoms: N_4  and  C_5
    3  A    between atoms: C_9  and  S_11
    4  A    between atoms: S_11  and  N_14
                            x       y       z     vdW  Elec       q    Type
                         _______ _______ _______ _____ _____    ______ ____

>  <TORSDO>
F 4

$$$$
=
 OpenBabel07192307433D

 24 24  0  0  0  0  0  0  0  0999 V2000
    4.0740    3.8400   18.5570 C   0  0  0  0  0  0  0  0  0  0  0  0
    4.8700    4.4190   19.5500 C   0  0  0  0  0  0  0  0  0  0  0  0
    6.0150    5.1510   19.2140 C   0  0  0  0  0  0  0  0  0  0  0  0
    6.3750    5.3180   17.8790 C   0  0  0  0  0  0  0  0  0  0  0  0
    5.5740    4.7550   16.8850 C   0  0  0  0  0  0  0  0  0  0  0  0
    4.4340    4.0110   17.2160 C   0  0  0  0  0  0  0  0  0  0  0  0
    4.6320    4.3140   20.6050 H   0  0  0  0  0  0  0  0  0  0  0  0
    6.6260    5.5860   20.0030 H   0  0  0  0  0  0  0  0  0  0  0  0
    7.2700    5.8810   17.6250 H   0  0  0  0  0  0  0  0  0  0  0  0
    3.8360    3.5690   16.4240 H   0  0  0  0  0  0  0  0  0  0  0  0
    1.6180    3.3590   18.4180 C   0  0  0  0  0  0  0  0  0  0  0  0
    1.2360    4.3240   17.7670 O   0  0  0  0  0  0  0  0  0  0  0  0
    2.9140    3.0810   18.8180 N   0  0  0  0  0  0  0  0  0  0  0  0
    3.0470    2.2440   19.3710 H   0  0  0  0  0  0  0  0  0  0  0  0
    0.6380    2.3180   18.9020 C   0  0  0  0  0  0  0  0  0  0  0  0
    0.0130    2.7480   19.6890 H   0  0  0  0  0  0  0  0  0  0  0  0
    1.1620    1.4380   19.2860 H   0  0  0  0  0  0  0  0  0  0  0  0
    0.0050    2.0000   18.0690 H   0  0  0  0  0  0  0  0  0  0  0  0
    6.0360    4.9370   15.1900 S   0  0  0  0  0  0  0  0  0  0  0  0
    5.2640    6.0060   14.6000 O   0  0  0  0  0  0  0  0  0  0  0  0
    6.1430    3.6320   14.5830 O   0  0  0  0  0  0  0  0  0  0  0  0
    7.6030    5.5240   15.3180 N   0  0  0  0  0  0  0  0  0  0  0  0
    7.9490    5.3890   16.2680 H   0  0  0  0  0  0  0  0  0  0  0  0
    7.6370    6.4930   15.0020 H   0  0  0  0  0  0  0  0  0  0  0  0
  1 13  1  0  0  0  0
  1  2  1  0  0  0  0
  2  7  1  0  0  0  0
  3  2  2  0  0  0  0
  3  8  1  0  0  0  0
  4  3  1  0  0  0  0
  5  6  1  0  0  0  0
  5  4  2  0  0  0  0
  6  1  2  0  0  0  0
  9  4  1  0  0  0  0
 10  6  1  0  0  0  0
 11 13  1  0  0  0  0
 11 15  1  0  0  0  0
 12 11  2  0  0  0  0
 13 14  1  0  0  0  0
 15 17  1  0  0  0  0
 15 16  1  0  0  0  0
 18 15  1  0  0  0  0
 19 22  1  0  0  0  0
 19  5  1  0  0  0  0
 20 19  2  0  0  0  0
 21 19  2  0  0  0  0
 22 23  1  0  0  0  0
 24 22  1  0  0  0  0
M  END
>  <MODEL>
16

>  <REMARK>
 VINA RESULT:    -5.612      2.934      3.095
 INTER + INTRA:          -6.460
 INTER:                  -6.325
 INTRA:                  -0.135
 UNBOUND:                 0.136
  Name = 
  4 active torsions:
  status: ('A' for Active; 'I' for Inactive)
    1  A    between atoms: C_1  and  C_2
    2  A    between atoms: N_4  and  C_5
    3  A    between atoms: C_9  and  S_11
    4  A    between atoms: S_11  and  N_14
                            x       y       z     vdW  Elec       q    Type
                         _______ _______ _______ _____ _____    ______ ____

>  <TORSDO>
F 4

$$$$
=
 OpenBabel07192307433D

 24 24  0  0  0  0  0  0  0  0999 V2000
    6.7580    5.4790   16.6580 C   0  0  0  0  0  0  0  0  0  0  0  0
    7.5540    5.7130   17.7830 C   0  0  0  0  0  0  0  0  0  0  0  0
    7.0210    5.6090   19.0730 C   0  0  0  0  0  0  0  0  0  0  0  0
    5.6840    5.2630   19.2540 C   0  0  0  0  0  0  0  0  0  0  0  0
    4.8910    5.0120   18.1350 C   0  0  0  0  0  0  0  0  0  0  0  0
    5.4150    5.1280   16.8410 C   0  0  0  0  0  0  0  0  0  0  0  0
    8.6010    5.9890   17.6930 H   0  0  0  0  0  0  0  0  0  0  0  0
    7.6560    5.8050   19.9350 H   0  0  0  0  0  0  0  0  0  0  0  0
    5.2740    5.1910   20.2590 H   0  0  0  0  0  0  0  0  0  0  0  0
    4.7720    4.9440   15.9850 H   0  0  0  0  0  0  0  0  0  0  0  0
    6.9840    4.6920   14.2890 C   0  0  0  0  0  0  0  0  0  0  0  0
    6.3350    3.6540   14.3340 O   0  0  0  0  0  0  0  0  0  0  0  0
    7.2200    5.5750   15.3290 N   0  0  0  0  0  0  0  0  0  0  0  0
    7.7990    6.3780   15.1180 H   0  0  0  0  0  0  0  0  0  0  0  0
    7.6600    5.1250   13.0120 C   0  0  0  0  0  0  0  0  0  0  0  0
    7.1410    4.6800   12.1590 H   0  0  0  0  0  0  0  0  0  0  0  0
    8.7110    4.8220   13.0030 H   0  0  0  0  0  0  0  0  0  0  0  0
    7.6200    6.2150   12.9310 H   0  0  0  0  0  0  0  0  0  0  0  0
    3.1870    4.6000   18.3520 S   0  0  0  0  0  0  0  0  0  0  0  0
    2.3730    5.7340   17.9810 O   0  0  0  0  0  0  0  0  0  0  0  0
    3.0220    3.9050   19.6070 O   0  0  0  0  0  0  0  0  0  0  0  0
    2.9500    3.4550   17.1490 N   0  0  0  0  0  0  0  0  0  0  0  0
    2.9820    3.9000   16.2320 H   0  0  0  0  0  0  0  0  0  0  0  0
    2.0870    2.9400   17.3250 H   0  0  0  0  0  0  0  0  0  0  0  0
  1  6  2  0  0  0  0
  1  2  1  0  0  0  0
  2  3  2  0  0  0  0
  3  4  1  0  0  0  0
  3  8  1  0  0  0  0
  4  9  1  0  0  0  0
  5 19  1  0  0  0  0
  5  4  2  0  0  0  0
  6  5  1  0  0  0  0
  7  2  1  0  0  0  0
 10  6  1  0  0  0  0
 11 12  2  0  0  0  0
 11 13  1  0  0  0  0
 13  1  1  0  0  0  0
 14 13  1  0  0  0  0
 15 11  1  0  0  0  0
 16 15  1  0  0  0  0
 17 15  1  0  0  0  0
 18 15  1  0  0  0  0
 19 21  2  0  0  0  0
 20 19  2  0  0  0  0
 22 24  1  0  0  0  0
 22 19  1  0  0  0  0
 23 22  1  0  0  0  0
M  END
>  <MODEL>
17

>  <REMARK>
 VINA RESULT:    -5.599      3.393      5.640
 INTER + INTRA:          -6.445
 INTER:                  -6.488
 INTRA:                   0.043
 UNBOUND:                 0.136
  Name = 
  4 active torsions:
  status: ('A' for Active; 'I' for Inactive)
    1  A    between atoms: C_1  and  C_2
    2  A    between atoms: N_4  and  C_5
    3  A    between atoms: C_9  and  S_11
    4  A    between atoms: S_11  and  N_14
                            x       y       z     vdW  Elec       q    Type
                         _______ _______ _______ _____ _____    ______ ____

>  <TORSDO>
F 4

$$$$
=
 OpenBabel07192307433D

 24 24  0  0  0  0  0  0  0  0999 V2000
    4.0210    6.5320   17.7500 C   0  0  0  0  0  0  0  0  0  0  0  0
    5.3970    6.6360   17.5230 C   0  0  0  0  0  0  0  0  0  0  0  0
    6.2470    5.5480   17.7570 C   0  0  0  0  0  0  0  0  0  0  0  0
    5.7290    4.3400   18.2160 C   0  0  0  0  0  0  0  0  0  0  0  0
    4.3540    4.2270   18.4280 C   0  0  0  0  0  0  0  0  0  0  0  0
    3.5020    5.3160   18.2080 C   0  0  0  0  0  0  0  0  0  0  0  0
    5.8480    7.5590   17.1680 H   0  0  0  0  0  0  0  0  0  0  0  0
    7.3150    5.6540   17.5830 H   0  0  0  0  0  0  0  0  0  0  0  0
    6.3950    3.5010   18.4040 H   0  0  0  0  0  0  0  0  0  0  0  0
    2.4370    5.2070   18.3970 H   0  0  0  0  0  0  0  0  0  0  0  0
    2.2560    8.1540   18.4810 C   0  0  0  0  0  0  0  0  0  0  0  0
    2.1350    7.8390   19.6590 O   0  0  0  0  0  0  0  0  0  0  0  0
    3.1050    7.5850   17.5470 N   0  0  0  0  0  0  0  0  0  0  0  0
    3.0600    7.9590   16.6080 H   0  0  0  0  0  0  0  0  0  0  0  0
    1.4100    9.2520   17.8850 C   0  0  0  0  0  0  0  0  0  0  0  0
    1.9730   10.1900   17.8970 H   0  0  0  0  0  0  0  0  0  0  0  0
    0.4790    9.3750   18.4450 H   0  0  0  0  0  0  0  0  0  0  0  0
    1.1550    8.9950   16.8530 H   0  0  0  0  0  0  0  0  0  0  0  0
    3.6910    2.7070   19.0370 S   0  0  0  0  0  0  0  0  0  0  0  0
    3.4520    1.8150   17.9260 O   0  0  0  0  0  0  0  0  0  0  0  0
    2.6860    2.9920   20.0330 O   0  0  0  0  0  0  0  0  0  0  0  0
    5.0010    2.0630   19.8650 N   0  0  0  0  0  0  0  0  0  0  0  0
    4.8800    1.0580   19.9820 H   0  0  0  0  0  0  0  0  0  0  0  0
    5.1370    2.5650   20.7430 H   0  0  0  0  0  0  0  0  0  0  0  0
  1  6  1  0  0  0  0
  2  1  2  0  0  0  0
  2  3  1  0  0  0  0
  3  4  2  0  0  0  0
  4  9  1  0  0  0  0
  4  5  1  0  0  0  0
  5 19  1  0  0  0  0
  6 10  1  0  0  0  0
  6  5  2  0  0  0  0
  7  2  1  0  0  0  0
  8  3  1  0  0  0  0
 11 12  2  0  0  0  0
 13  1  1  0  0  0  0
 13 11  1  0  0  0  0
 14 13  1  0  0  0  0
 15 16  1  0  0  0  0
 15 17  1  0  0  0  0
 15 11  1  0  0  0  0
 18 15  1  0  0  0  0
 19 22  1  0  0  0  0
 19 21  2  0  0  0  0
 20 19  2  0  0  0  0
 22 23  1  0  0  0  0
 22 24  1  0  0  0  0
M  END
>  <MODEL>
18

>  <REMARK>
 VINA RESULT:    -5.584      3.288      4.552
 INTER + INTRA:          -6.428
 INTER:                  -6.328
 INTRA:                  -0.099
 UNBOUND:                 0.136
  Name = 
  4 active torsions:
  status: ('A' for Active; 'I' for Inactive)
    1  A    between atoms: C_1  and  C_2
    2  A    between atoms: N_4  and  C_5
    3  A    between atoms: C_9  and  S_11
    4  A    between atoms: S_11  and  N_14
                            x       y       z     vdW  Elec       q    Type
                         _______ _______ _______ _____ _____    ______ ____

>  <TORSDO>
F 4

$$$$
=
 OpenBabel07192307433D

 24 24  0  0  0  0  0  0  0  0999 V2000
    4.3980    5.9720   18.1700 C   0  0  0  0  0  0  0  0  0  0  0  0
    3.1550    6.5000   17.8050 C   0  0  0  0  0  0  0  0  0  0  0  0
    1.9970    5.7160   17.8650 C   0  0  0  0  0  0  0  0  0  0  0  0
    2.0670    4.3940   18.2970 C   0  0  0  0  0  0  0  0  0  0  0  0
    3.3020    3.8680   18.6770 C   0  0  0  0  0  0  0  0  0  0  0  0
    4.4660    4.6440   18.6060 C   0  0  0  0  0  0  0  0  0  0  0  0
    3.0510    7.5240   17.4580 H   0  0  0  0  0  0  0  0  0  0  0  0
    1.0420    6.1430   17.5680 H   0  0  0  0  0  0  0  0  0  0  0  0
    1.1650    3.7870   18.3340 H   0  0  0  0  0  0  0  0  0  0  0  0
    5.4180    4.2060   18.8920 H   0  0  0  0  0  0  0  0  0  0  0  0
    6.6160    6.5930   17.1820 C   0  0  0  0  0  0  0  0  0  0  0  0
    6.6480    5.8450   16.2140 O   0  0  0  0  0  0  0  0  0  0  0  0
    5.6070    6.6960   18.1250 N   0  0  0  0  0  0  0  0  0  0  0  0
    5.7560    7.3580   18.8760 H   0  0  0  0  0  0  0  0  0  0  0  0
    7.7670    7.5240   17.4780 C   0  0  0  0  0  0  0  0  0  0  0  0
    7.6780    7.8940   18.5030 H   0  0  0  0  0  0  0  0  0  0  0  0
    7.7770    8.3660   16.7810 H   0  0  0  0  0  0  0  0  0  0  0  0
    8.7100    6.9810   17.3680 H   0  0  0  0  0  0  0  0  0  0  0  0
    3.4060    2.1840   19.2000 S   0  0  0  0  0  0  0  0  0  0  0  0
    3.5220    1.3330   18.0380 O   0  0  0  0  0  0  0  0  0  0  0  0
    2.4330    1.9470   20.2400 O   0  0  0  0  0  0  0  0  0  0  0  0
    4.9080    2.1440   19.9470 N   0  0  0  0  0  0  0  0  0  0  0  0
    5.6220    2.5010   19.3130 H   0  0  0  0  0  0  0  0  0  0  0  0
    5.0990    1.2020   20.2910 H   0  0  0  0  0  0  0  0  0  0  0  0
  1  6  1  0  0  0  0
  2  3  1  0  0  0  0
  2  1  2  0  0  0  0
  3  4  2  0  0  0  0
  4  9  1  0  0  0  0
  4  5  1  0  0  0  0
  5 19  1  0  0  0  0
  6  5  2  0  0  0  0
  6 10  1  0  0  0  0
  7  2  1  0  0  0  0
  8  3  1  0  0  0  0
 11 15  1  0  0  0  0
 11 13  1  0  0  0  0
 12 11  2  0  0  0  0
 13  1  1  0  0  0  0
 13 14  1  0  0  0  0
 15 16  1  0  0  0  0
 17 15  1  0  0  0  0
 18 15  1  0  0  0  0
 19 22  1  0  0  0  0
 19 21  2  0  0  0  0
 20 19  2  0  0  0  0
 22 24  1  0  0  0  0
 23 22  1  0  0  0  0
M  END
>  <MODEL>
19

>  <REMARK>
 VINA RESULT:    -5.541      2.499      4.982
 INTER + INTRA:          -6.376
 INTER:                  -6.151
 INTRA:                  -0.225
 UNBOUND:                 0.136
  Name = 
  4 active torsions:
  status: ('A' for Active; 'I' for Inactive)
    1  A    between atoms: C_1  and  C_2
    2  A    between atoms: N_4  and  C_5
    3  A    between atoms: C_9  and  S_11
    4  A    between atoms: S_11  and  N_14
                            x       y       z     vdW  Elec       q    Type
                         _______ _______ _______ _____ _____    ______ ____

>  <TORSDO>
F 4

$$$$
=
 OpenBabel07192307433D

 24 24  0  0  0  0  0  0  0  0999 V2000
    2.3050    6.6560   19.8800 C   0  0  0  0  0  0  0  0  0  0  0  0
    2.8610    6.7740   18.6030 C   0  0  0  0  0  0  0  0  0  0  0  0
    2.6440    7.9200   17.8290 C   0  0  0  0  0  0  0  0  0  0  0  0
    1.8710    8.9670   18.3270 C   0  0  0  0  0  0  0  0  0  0  0  0
    1.3270    8.8590   19.6070 C   0  0  0  0  0  0  0  0  0  0  0  0
    1.5310    7.7090   20.3800 C   0  0  0  0  0  0  0  0  0  0  0  0
    3.4690    5.9840   18.1710 H   0  0  0  0  0  0  0  0  0  0  0  0
    3.0790    7.9880   16.8340 H   0  0  0  0  0  0  0  0  0  0  0  0
    1.7000    9.8510   17.7180 H   0  0  0  0  0  0  0  0  0  0  0  0
    1.0820    7.6430   21.3680 H   0  0  0  0  0  0  0  0  0  0  0  0
    1.7010    4.3790   20.7350 C   0  0  0  0  0  0  0  0  0  0  0  0
    0.7240    4.1300   20.0390 O   0  0  0  0  0  0  0  0  0  0  0  0
    2.4700    5.5290   20.7120 N   0  0  0  0  0  0  0  0  0  0  0  0
    3.2340    5.5760   21.3750 H   0  0  0  0  0  0  0  0  0  0  0  0
    2.1780    3.3970   21.7770 C   0  0  0  0  0  0  0  0  0  0  0  0
    1.8350    3.7210   22.7630 H   0  0  0  0  0  0  0  0  0  0  0  0
    3.2690    3.3210   21.7720 H   0  0  0  0  0  0  0  0  0  0  0  0
    1.7680    2.4070   21.5570 H   0  0  0  0  0  0  0  0  0  0  0  0
    0.3220   10.1680   20.2360 S   0  0  0  0  0  0  0  0  0  0  0  0
   -0.7930   10.3820   19.3430 O   0  0  0  0  0  0  0  0  0  0  0  0
    1.1700   11.2450   20.6890 O   0  0  0  0  0  0  0  0  0  0  0  0
   -0.3290    9.4730   21.6180 N   0  0  0  0  0  0  0  0  0  0  0  0
    0.3510    9.5040   22.3770 H   0  0  0  0  0  0  0  0  0  0  0  0
   -0.6660    8.5330   21.4080 H   0  0  0  0  0  0  0  0  0  0  0  0
  1  6  1  0  0  0  0
  1 13  1  0  0  0  0
  2  1  2  0  0  0  0
  3  4  2  0  0  0  0
  3  2  1  0  0  0  0
  4  5  1  0  0  0  0
  5 19  1  0  0  0  0
  5  6  2  0  0  0  0
  6 10  1  0  0  0  0
  7  2  1  0  0  0  0
  8  3  1  0  0  0  0
  9  4  1  0  0  0  0
 11 15  1  0  0  0  0
 12 11  2  0  0  0  0
 13 11  1  0  0  0  0
 13 14  1  0  0  0  0
 15 16  1  0  0  0  0
 17 15  1  0  0  0  0
 18 15  1  0  0  0  0
 19 21  2  0  0  0  0
 19 22  1  0  0  0  0
 20 19  2  0  0  0  0
 22 23  1  0  0  0  0
 24 22  1  0  0  0  0
M  END
>  <MODEL>
20

>  <REMARK>
 VINA RESULT:    -5.499      4.666      5.546
 INTER + INTRA:          -6.327
 INTER:                  -6.070
 INTRA:                  -0.257
 UNBOUND:                 0.136
  Name = 
  4 active torsions:
  status: ('A' for Active; 'I' for Inactive)
    1  A    between atoms: C_1  and  C_2
    2  A    between atoms: N_4  and  C_5
    3  A    between atoms: C_9  and  S_11
    4  A    between atoms: S_11  and  N_14
                            x       y       z     vdW  Elec       q    Type
                         _______ _______ _______ _____ _____    ______ ____

>  <TORSDO>
F 4

$$$$
=
 OpenBabel07192307433D

 24 24  0  0  0  0  0  0  0  0999 V2000
    2.3520    6.5840   19.8480 C   0  0  0  0  0  0  0  0  0  0  0  0
    2.8920    6.6430   18.5600 C   0  0  0  0  0  0  0  0  0  0  0  0
    2.7200    7.7800   17.7610 C   0  0  0  0  0  0  0  0  0  0  0  0
    2.0080    8.8750   18.2440 C   0  0  0  0  0  0  0  0  0  0  0  0
    1.4810    8.8260   19.5350 C   0  0  0  0  0  0  0  0  0  0  0  0
    1.6390    7.6870   20.3330 C   0  0  0  0  0  0  0  0  0  0  0  0
    3.4520    5.8130   18.1390 H   0  0  0  0  0  0  0  0  0  0  0  0
    3.1410    7.8010   16.7580 H   0  0  0  0  0  0  0  0  0  0  0  0
    1.8710    9.7520   17.6150 H   0  0  0  0  0  0  0  0  0  0  0  0
    1.2040    7.6670   21.3290 H   0  0  0  0  0  0  0  0  0  0  0  0
    1.7390    4.2990   20.6750 C   0  0  0  0  0  0  0  0  0  0  0  0
    0.8340    4.0140   19.8990 O   0  0  0  0  0  0  0  0  0  0  0  0
    2.4740    5.4710   20.7060 N   0  0  0  0  0  0  0  0  0  0  0  0
    3.1750    5.5470   21.4320 H   0  0  0  0  0  0  0  0  0  0  0  0
    2.1490    3.3420   21.7670 C   0  0  0  0  0  0  0  0  0  0  0  0
    3.2400    3.2950   21.8160 H   0  0  0  0  0  0  0  0  0  0  0  0
    1.7440    2.3430   21.5820 H   0  0  0  0  0  0  0  0  0  0  0  0
    1.7570    3.6950   22.7250 H   0  0  0  0  0  0  0  0  0  0  0  0
    0.5530   10.1990   20.1460 S   0  0  0  0  0  0  0  0  0  0  0  0
    0.8840   10.4140   21.5360 O   0  0  0  0  0  0  0  0  0  0  0  0
   -0.8100   10.0980   19.6800 O   0  0  0  0  0  0  0  0  0  0  0  0
    1.2390   11.4820   19.3100 N   0  0  0  0  0  0  0  0  0  0  0  0
    1.9060   11.1340   18.6230 H   0  0  0  0  0  0  0  0  0  0  0  0
    1.6400   12.1510   19.9690 H   0  0  0  0  0  0  0  0  0  0  0  0
  1  6  1  0  0  0  0
  1 13  1  0  0  0  0
  2  1  2  0  0  0  0
  3  4  2  0  0  0  0
  3  2  1  0  0  0  0
  4  5  1  0  0  0  0
  5 19  1  0  0  0  0
  5  6  2  0  0  0  0
  6 10  1  0  0  0  0
  7  2  1  0  0  0  0
  8  3  1  0  0  0  0
  9  4  1  0  0  0  0
 11 13  1  0  0  0  0
 11 15  1  0  0  0  0
 12 11  2  0  0  0  0
 13 14  1  0  0  0  0
 15 16  1  0  0  0  0
 15 18  1  0  0  0  0
 17 15  1  0  0  0  0
 19 20  2  0  0  0  0
 21 19  2  0  0  0  0
 22 24  1  0  0  0  0
 22 19  1  0  0  0  0
 23 22  1  0  0  0  0
M  END
>  <MODEL>
21

>  <REMARK>
 VINA RESULT:    -5.493      4.707      5.422
 INTER + INTRA:          -6.320
 INTER:                  -6.068
 INTRA:                  -0.252
 UNBOUND:                 0.136
  Name = 
  4 active torsions:
  status: ('A' for Active; 'I' for Inactive)
    1  A    between atoms: C_1  and  C_2
    2  A    between atoms: N_4  and  C_5
    3  A    between atoms: C_9  and  S_11
    4  A    between atoms: S_11  and  N_14
                            x       y       z     vdW  Elec       q    Type
                         _______ _______ _______ _____ _____    ______ ____

>  <TORSDO>
F 4

$$$$
=
 OpenBabel07192307433D

 24 24  0  0  0  0  0  0  0  0999 V2000
    4.1170    3.7450   18.5020 C   0  0  0  0  0  0  0  0  0  0  0  0
    4.9230    4.2920   19.5050 C   0  0  0  0  0  0  0  0  0  0  0  0
    6.0540    5.0510   19.1820 C   0  0  0  0  0  0  0  0  0  0  0  0
    6.3890    5.2780   17.8490 C   0  0  0  0  0  0  0  0  0  0  0  0
    5.5790    4.7470   16.8460 C   0  0  0  0  0  0  0  0  0  0  0  0
    4.4540    3.9760   17.1630 C   0  0  0  0  0  0  0  0  0  0  0  0
    4.7030    4.1400   20.5580 H   0  0  0  0  0  0  0  0  0  0  0  0
    6.6720    5.4610   19.9780 H   0  0  0  0  0  0  0  0  0  0  0  0
    7.2730    5.8630   17.6050 H   0  0  0  0  0  0  0  0  0  0  0  0
    3.8480    3.5600   16.3620 H   0  0  0  0  0  0  0  0  0  0  0  0
    1.6600    3.2590   18.4180 C   0  0  0  0  0  0  0  0  0  0  0  0
    1.2510    4.2670   17.8550 O   0  0  0  0  0  0  0  0  0  0  0  0
    2.9710    2.9610   18.7490 N   0  0  0  0  0  0  0  0  0  0  0  0
    3.1270    2.0870   19.2330 H   0  0  0  0  0  0  0  0  0  0  0  0
    0.7030    2.1790   18.8600 C   0  0  0  0  0  0  0  0  0  0  0  0
   -0.2610    2.6310   19.1120 H   0  0  0  0  0  0  0  0  0  0  0  0
    1.0960    1.6410   19.7270 H   0  0  0  0  0  0  0  0  0  0  0  0
    0.5650    1.4600   18.0480 H   0  0  0  0  0  0  0  0  0  0  0  0
    6.0110    5.0050   15.1520 S   0  0  0  0  0  0  0  0  0  0  0  0
    5.2330    4.1140   14.3230 O   0  0  0  0  0  0  0  0  0  0  0  0
    7.4460    5.1150   15.0390 O   0  0  0  0  0  0  0  0  0  0  0  0
    5.4010    6.5420   14.8680 N   0  0  0  0  0  0  0  0  0  0  0  0
    5.0170    6.5960   13.9250 H   0  0  0  0  0  0  0  0  0  0  0  0
    6.1200    7.2410   15.0590 H   0  0  0  0  0  0  0  0  0  0  0  0
  1 13  1  0  0  0  0
  1  2  1  0  0  0  0
  2  7  1  0  0  0  0
  3  2  2  0  0  0  0
  3  8  1  0  0  0  0
  4  3  1  0  0  0  0
  5  6  1  0  0  0  0
  5  4  2  0  0  0  0
  6  1  2  0  0  0  0
  9  4  1  0  0  0  0
 10  6  1  0  0  0  0
 11 13  1  0  0  0  0
 11 15  1  0  0  0  0
 12 11  2  0  0  0  0
 13 14  1  0  0  0  0
 15 16  1  0  0  0  0
 15 17  1  0  0  0  0
 18 15  1  0  0  0  0
 19  5  1  0  0  0  0
 20 19  2  0  0  0  0
 21 19  2  0  0  0  0
 22 24  1  0  0  0  0
 22 19  1  0  0  0  0
 23 22  1  0  0  0  0
M  END
>  <MODEL>
22

>  <REMARK>
 VINA RESULT:    -5.349      2.890      3.287
 INTER + INTRA:          -6.151
 INTER:                  -6.006
 INTRA:                  -0.145
 UNBOUND:                 0.136
  Name = 
  4 active torsions:
  status: ('A' for Active; 'I' for Inactive)
    1  A    between atoms: C_1  and  C_2
    2  A    between atoms: N_4  and  C_5
    3  A    between atoms: C_9  and  S_11
    4  A    between atoms: S_11  and  N_14
                            x       y       z     vdW  Elec       q    Type
                         _______ _______ _______ _____ _____    ______ ____

>  <TORSDO>
F 4

$$$$
=
 OpenBabel07192307433D

 24 24  0  0  0  0  0  0  0  0999 V2000
    2.6060    7.0860   18.8060 C   0  0  0  0  0  0  0  0  0  0  0  0
    2.5830    7.9910   17.7400 C   0  0  0  0  0  0  0  0  0  0  0  0
    1.9290    9.2230   17.8580 C   0  0  0  0  0  0  0  0  0  0  0  0
    1.2930    9.5680   19.0480 C   0  0  0  0  0  0  0  0  0  0  0  0
    1.3280    8.6750   20.1200 C   0  0  0  0  0  0  0  0  0  0  0  0
    1.9700    7.4360   20.0020 C   0  0  0  0  0  0  0  0  0  0  0  0
    3.0620    7.7650   16.7910 H   0  0  0  0  0  0  0  0  0  0  0  0
    1.9150    9.9080   17.0130 H   0  0  0  0  0  0  0  0  0  0  0  0
    0.7800   10.5230   19.1320 H   0  0  0  0  0  0  0  0  0  0  0  0
    1.9680    6.7510   20.8460 H   0  0  0  0  0  0  0  0  0  0  0  0
    2.7330    4.6540   18.2150 C   0  0  0  0  0  0  0  0  0  0  0  0
    1.6410    4.4950   17.6830 O   0  0  0  0  0  0  0  0  0  0  0  0
    3.2340    5.8250   18.7580 N   0  0  0  0  0  0  0  0  0  0  0  0
    4.1540    5.7710   19.1780 H   0  0  0  0  0  0  0  0  0  0  0  0
    3.6930    3.5000   18.3660 C   0  0  0  0  0  0  0  0  0  0  0  0
    4.5420    3.8140   18.9800 H   0  0  0  0  0  0  0  0  0  0  0  0
    4.0500    3.1590   17.3900 H   0  0  0  0  0  0  0  0  0  0  0  0
    3.1830    2.6640   18.8520 H   0  0  0  0  0  0  0  0  0  0  0  0
    0.5010    9.0910   21.6240 S   0  0  0  0  0  0  0  0  0  0  0  0
    1.4770    9.2250   22.6810 O   0  0  0  0  0  0  0  0  0  0  0  0
   -0.6810    8.2730   21.7600 O   0  0  0  0  0  0  0  0  0  0  0  0
   -0.0420   10.6460   21.3040 N   0  0  0  0  0  0  0  0  0  0  0  0
   -0.9860   10.6140   20.9210 H   0  0  0  0  0  0  0  0  0  0  0  0
    0.6280   11.1300   20.7050 H   0  0  0  0  0  0  0  0  0  0  0  0
  1  6  1  0  0  0  0
  2  3  1  0  0  0  0
  2  1  2  0  0  0  0
  3  4  2  0  0  0  0
  4  9  1  0  0  0  0
  4  5  1  0  0  0  0
  5 19  1  0  0  0  0
  6  5  2  0  0  0  0
  6 10  1  0  0  0  0
  7  2  1  0  0  0  0
  8  3  1  0  0  0  0
 11 15  1  0  0  0  0
 11 13  1  0  0  0  0
 12 11  2  0  0  0  0
 13  1  1  0  0  0  0
 13 14  1  0  0  0  0
 15 18  1  0  0  0  0
 15 16  1  0  0  0  0
 17 15  1  0  0  0  0
 19 21  2  0  0  0  0
 19 20  2  0  0  0  0
 22 19  1  0  0  0  0
 23 22  1  0  0  0  0
 24 22  1  0  0  0  0
M  END
>  <MODEL>
23

>  <REMARK>
 VINA RESULT:    -5.159      4.582      5.686
 INTER + INTRA:          -5.928
 INTER:                  -5.673
 INTRA:                  -0.255
 UNBOUND:                 0.136
  Name = 
  4 active torsions:
  status: ('A' for Active; 'I' for Inactive)
    1  A    between atoms: C_1  and  C_2
    2  A    between atoms: N_4  and  C_5
    3  A    between atoms: C_9  and  S_11
    4  A    between atoms: S_11  and  N_14
                            x       y       z     vdW  Elec       q    Type
                         _______ _______ _______ _____ _____    ______ ____

>  <TORSDO>
F 4

$$$$
=
 OpenBabel07192307433D

 24 24  0  0  0  0  0  0  0  0999 V2000
    3.5160    3.3770   18.8850 C   0  0  0  0  0  0  0  0  0  0  0  0
    3.6710    2.4290   17.8690 C   0  0  0  0  0  0  0  0  0  0  0  0
    4.2280    2.7850   16.6350 C   0  0  0  0  0  0  0  0  0  0  0  0
    4.6430    4.0940   16.4040 C   0  0  0  0  0  0  0  0  0  0  0  0
    4.5040    5.0390   17.4220 C   0  0  0  0  0  0  0  0  0  0  0  0
    3.9360    4.6910   18.6530 C   0  0  0  0  0  0  0  0  0  0  0  0
    3.3590    1.3960   18.0010 H   0  0  0  0  0  0  0  0  0  0  0  0
    4.3310    2.0340   15.8550 H   0  0  0  0  0  0  0  0  0  0  0  0
    5.0680    4.3660   15.4410 H   0  0  0  0  0  0  0  0  0  0  0  0
    3.8240    5.4500   19.4230 H   0  0  0  0  0  0  0  0  0  0  0  0
    1.6210    2.8750   20.4460 C   0  0  0  0  0  0  0  0  0  0  0  0
    0.6760    2.8920   19.6660 O   0  0  0  0  0  0  0  0  0  0  0  0
    2.9540    3.0960   20.1480 N   0  0  0  0  0  0  0  0  0  0  0  0
    3.6030    3.0630   20.9240 H   0  0  0  0  0  0  0  0  0  0  0  0
    1.4020    2.6190   21.9170 C   0  0  0  0  0  0  0  0  0  0  0  0
    2.0340    3.2950   22.5000 H   0  0  0  0  0  0  0  0  0  0  0  0
    1.6370    1.5820   22.1730 H   0  0  0  0  0  0  0  0  0  0  0  0
    0.3520    2.8000   22.1650 H   0  0  0  0  0  0  0  0  0  0  0  0
    5.0010    6.7090   17.1300 S   0  0  0  0  0  0  0  0  0  0  0  0
    6.3250    6.9120   17.6710 O   0  0  0  0  0  0  0  0  0  0  0  0
    3.8990    7.5930   17.4260 O   0  0  0  0  0  0  0  0  0  0  0  0
    5.1830    6.7310   15.4610 N   0  0  0  0  0  0  0  0  0  0  0  0
    6.0690    6.3000   15.2020 H   0  0  0  0  0  0  0  0  0  0  0  0
    5.0720    7.6840   15.1130 H   0  0  0  0  0  0  0  0  0  0  0  0
  1 13  1  0  0  0  0
  2  7  1  0  0  0  0
  2  1  2  0  0  0  0
  3  2  1  0  0  0  0
  4  3  2  0  0  0  0
  4  5  1  0  0  0  0
  5  6  2  0  0  0  0
  6  1  1  0  0  0  0
  6 10  1  0  0  0  0
  8  3  1  0  0  0  0
  9  4  1  0  0  0  0
 11 15  1  0  0  0  0
 12 11  2  0  0  0  0
 13 11  1  0  0  0  0
 13 14  1  0  0  0  0
 15 18  1  0  0  0  0
 15 17  1  0  0  0  0
 15 16  1  0  0  0  0
 19  5  1  0  0  0  0
 19 21  2  0  0  0  0
 19 20  2  0  0  0  0
 22 19  1  0  0  0  0
 23 22  1  0  0  0  0
 24 22  1  0  0  0  0
M  END
>  <MODEL>
24

>  <REMARK>
 VINA RESULT:    -5.152      2.732      2.947
 INTER + INTRA:          -5.920
 INTER:                  -5.675
 INTRA:                  -0.244
 UNBOUND:                 0.136
  Name = 
  4 active torsions:
  status: ('A' for Active; 'I' for Inactive)
    1  A    between atoms: C_1  and  C_2
    2  A    between atoms: N_4  and  C_5
    3  A    between atoms: C_9  and  S_11
    4  A    between atoms: S_11  and  N_14
                            x       y       z     vdW  Elec       q    Type
                         _______ _______ _______ _____ _____    ______ ____

>  <TORSDO>
F 4

$$$$
=
 OpenBabel07192307433D

 24 24  0  0  0  0  0  0  0  0999 V2000
    1.0300    8.9430   19.9520 C   0  0  0  0  0  0  0  0  0  0  0  0
    1.3640    9.5950   18.7610 C   0  0  0  0  0  0  0  0  0  0  0  0
    2.1960    8.9830   17.8170 C   0  0  0  0  0  0  0  0  0  0  0  0
    2.7010    7.7060   18.0500 C   0  0  0  0  0  0  0  0  0  0  0  0
    2.3570    7.0450   19.2300 C   0  0  0  0  0  0  0  0  0  0  0  0
    1.5360    7.6590   20.1840 C   0  0  0  0  0  0  0  0  0  0  0  0
    0.9970   10.5930   18.5360 H   0  0  0  0  0  0  0  0  0  0  0  0
    2.4500    9.5110   16.9010 H   0  0  0  0  0  0  0  0  0  0  0  0
    3.3530    7.2380   17.3160 H   0  0  0  0  0  0  0  0  0  0  0  0
    1.2970    7.1300   21.1020 H   0  0  0  0  0  0  0  0  0  0  0  0
    0.4900    9.6210   22.3030 C   0  0  0  0  0  0  0  0  0  0  0  0
    1.5070    9.2570   22.8810 O   0  0  0  0  0  0  0  0  0  0  0  0
    0.2080    9.4990   20.9540 N   0  0  0  0  0  0  0  0  0  0  0  0
   -0.6950    9.8390   20.6480 H   0  0  0  0  0  0  0  0  0  0  0  0
   -0.6460   10.2580   23.0660 C   0  0  0  0  0  0  0  0  0  0  0  0
   -0.2740   11.1350   23.6030 H   0  0  0  0  0  0  0  0  0  0  0  0
   -1.0850    9.5500   23.7750 H   0  0  0  0  0  0  0  0  0  0  0  0
   -1.4270   10.5650   22.3650 H   0  0  0  0  0  0  0  0  0  0  0  0
    3.0150    5.4370   19.5480 S   0  0  0  0  0  0  0  0  0  0  0  0
    4.4540    5.5230   19.6470 O   0  0  0  0  0  0  0  0  0  0  0  0
    2.3530    4.4750   18.7000 O   0  0  0  0  0  0  0  0  0  0  0  0
    2.4680    5.1400   21.1070 N   0  0  0  0  0  0  0  0  0  0  0  0
    1.9030    5.9230   21.4330 H   0  0  0  0  0  0  0  0  0  0  0  0
    3.2580    4.9230   21.7160 H   0  0  0  0  0  0  0  0  0  0  0  0
  1  6  1  0  0  0  0
  1 13  1  0  0  0  0
  2  1  2  0  0  0  0
  3  4  2  0  0  0  0
  3  2  1  0  0  0  0
  4  5  1  0  0  0  0
  5 19  1  0  0  0  0
  5  6  2  0  0  0  0
  6 10  1  0  0  0  0
  7  2  1  0  0  0  0
  8  3  1  0  0  0  0
  9  4  1  0  0  0  0
 11 12  2  0  0  0  0
 11 15  1  0  0  0  0
 13 11  1  0  0  0  0
 14 13  1  0  0  0  0
 15 16  1  0  0  0  0
 15 17  1  0  0  0  0
 18 15  1  0  0  0  0
 19 20  2  0  0  0  0
 19 22  1  0  0  0  0
 21 19  2  0  0  0  0
 22 23  1  0  0  0  0
 22 24  1  0  0  0  0
M  END
>  <MODEL>
25

>  <REMARK>
 VINA RESULT:    -5.138      4.397      5.259
 INTER + INTRA:          -5.903
 INTER:                  -5.864
 INTRA:                  -0.039
 UNBOUND:                 0.136
  Name = 
  4 active torsions:
  status: ('A' for Active; 'I' for Inactive)
    1  A    between atoms: C_1  and  C_2
    2  A    between atoms: N_4  and  C_5
    3  A    between atoms: C_9  and  S_11
    4  A    between atoms: S_11  and  N_14
                            x       y       z     vdW  Elec       q    Type
                         _______ _______ _______ _____ _____    ______ ____

>  <TORSDO>
F 4

$$$$
=
 OpenBabel07192307433D

 24 24  0  0  0  0  0  0  0  0999 V2000
    7.7130    7.6600   17.8610 C   0  0  0  0  0  0  0  0  0  0  0  0
    8.2660    6.9110   18.9040 C   0  0  0  0  0  0  0  0  0  0  0  0
    7.9280    5.5640   19.0780 C   0  0  0  0  0  0  0  0  0  0  0  0
    7.0370    4.9460   18.2040 C   0  0  0  0  0  0  0  0  0  0  0  0
    6.4950    5.6860   17.1520 C   0  0  0  0  0  0  0  0  0  0  0  0
    6.8200    7.0370   16.9820 C   0  0  0  0  0  0  0  0  0  0  0  0
    8.9630    7.3500   19.6130 H   0  0  0  0  0  0  0  0  0  0  0  0
    8.3630    5.0020   19.9020 H   0  0  0  0  0  0  0  0  0  0  0  0
    6.7730    3.9010   18.3480 H   0  0  0  0  0  0  0  0  0  0  0  0
    6.3710    7.5950   16.1640 H   0  0  0  0  0  0  0  0  0  0  0  0
    8.7240    9.8800   18.4370 C   0  0  0  0  0  0  0  0  0  0  0  0
    9.2500    9.6150   19.5110 O   0  0  0  0  0  0  0  0  0  0  0  0
    7.9960    9.0220   17.6300 N   0  0  0  0  0  0  0  0  0  0  0  0
    7.6140    9.4170   16.7800 H   0  0  0  0  0  0  0  0  0  0  0  0
    8.8000   11.2730   17.8620 C   0  0  0  0  0  0  0  0  0  0  0  0
    8.0200   11.8940   18.3120 H   0  0  0  0  0  0  0  0  0  0  0  0
    8.6760   11.2550   16.7760 H   0  0  0  0  0  0  0  0  0  0  0  0
    9.7800   11.7040   18.0850 H   0  0  0  0  0  0  0  0  0  0  0  0
    5.3420    4.9190   16.0550 S   0  0  0  0  0  0  0  0  0  0  0  0
    5.3740    5.6010   14.7810 O   0  0  0  0  0  0  0  0  0  0  0  0
    4.1120    4.6580   16.7630 O   0  0  0  0  0  0  0  0  0  0  0  0
    6.0560    3.4240   15.7890 N   0  0  0  0  0  0  0  0  0  0  0  0
    5.6480    2.9850   14.9650 H   0  0  0  0  0  0  0  0  0  0  0  0
    5.9900    2.8540   16.6330 H   0  0  0  0  0  0  0  0  0  0  0  0
  1  2  1  0  0  0  0
  2  3  2  0  0  0  0
  2  7  1  0  0  0  0
  3  8  1  0  0  0  0
  4  9  1  0  0  0  0
  4  3  1  0  0  0  0
  5  4  2  0  0  0  0
  6  5  1  0  0  0  0
  6  1  2  0  0  0  0
 10  6  1  0  0  0  0
 11 12  2  0  0  0  0
 13  1  1  0  0  0  0
 13 11  1  0  0  0  0
 14 13  1  0  0  0  0
 15 18  1  0  0  0  0
 15 16  1  0  0  0  0
 15 11  1  0  0  0  0
 17 15  1  0  0  0  0
 19 21  2  0  0  0  0
 19  5  1  0  0  0  0
 20 19  2  0  0  0  0
 22 19  1  0  0  0  0
 22 24  1  0  0  0  0
 23 22  1  0  0  0  0
M  END
>  <MODEL>
26

>  <REMARK>
 VINA RESULT:    -5.123      4.010      6.269
 INTER + INTRA:          -5.885
 INTER:                  -6.054
 INTRA:                   0.169
 UNBOUND:                 0.136
  Name = 
  4 active torsions:
  status: ('A' for Active; 'I' for Inactive)
    1  A    between atoms: C_1  and  C_2
    2  A    between atoms: N_4  and  C_5
    3  A    between atoms: C_9  and  S_11
    4  A    between atoms: S_11  and  N_14
                            x       y       z     vdW  Elec       q    Type
                         _______ _______ _______ _____ _____    ______ ____

>  <TORSDO>
F 4

$$$$
=
 OpenBabel07192307433D

 24 24  0  0  0  0  0  0  0  0999 V2000
    4.2990    4.0020   16.8270 C   0  0  0  0  0  0  0  0  0  0  0  0
    4.6660    3.9240   15.4800 C   0  0  0  0  0  0  0  0  0  0  0  0
    5.9420    4.3190   15.0610 C   0  0  0  0  0  0  0  0  0  0  0  0
    6.8700    4.7910   15.9860 C   0  0  0  0  0  0  0  0  0  0  0  0
    6.5120    4.8560   17.3330 C   0  0  0  0  0  0  0  0  0  0  0  0
    5.2320    4.4750   17.7560 C   0  0  0  0  0  0  0  0  0  0  0  0
    3.9760    3.5650   14.7210 H   0  0  0  0  0  0  0  0  0  0  0  0
    6.2040    4.2580   14.0070 H   0  0  0  0  0  0  0  0  0  0  0  0
    7.8570    5.1040   15.6530 H   0  0  0  0  0  0  0  0  0  0  0  0
    4.9730    4.5500   18.8090 H   0  0  0  0  0  0  0  0  0  0  0  0
    2.6900    2.4620   17.9760 C   0  0  0  0  0  0  0  0  0  0  0  0
    3.4280    1.5200   18.2370 O   0  0  0  0  0  0  0  0  0  0  0  0
    3.0300    3.6340   17.3220 N   0  0  0  0  0  0  0  0  0  0  0  0
    2.2850    4.3010   17.1720 H   0  0  0  0  0  0  0  0  0  0  0  0
    1.2260    2.4220   18.3430 C   0  0  0  0  0  0  0  0  0  0  0  0
    0.9110    1.3810   18.4610 H   0  0  0  0  0  0  0  0  0  0  0  0
    0.6170    2.9080   17.5760 H   0  0  0  0  0  0  0  0  0  0  0  0
    1.0740    2.9550   19.2860 H   0  0  0  0  0  0  0  0  0  0  0  0
    7.6710    5.4800   18.5110 S   0  0  0  0  0  0  0  0  0  0  0  0
    7.8550    6.8960   18.2900 O   0  0  0  0  0  0  0  0  0  0  0  0
    8.7800    4.5620   18.6200 O   0  0  0  0  0  0  0  0  0  0  0  0
    6.8120    5.3500   19.9470 N   0  0  0  0  0  0  0  0  0  0  0  0
    6.2870    4.4760   19.9610 H   0  0  0  0  0  0  0  0  0  0  0  0
    6.2330    6.1800   20.0800 H   0  0  0  0  0  0  0  0  0  0  0  0
  1 13  1  0  0  0  0
  1  6  1  0  0  0  0
  2  1  2  0  0  0  0
  3  2  1  0  0  0  0
  3  4  2  0  0  0  0
  4  5  1  0  0  0  0
  5  6  2  0  0  0  0
  5 19  1  0  0  0  0
  6 10  1  0  0  0  0
  7  2  1  0  0  0  0
  8  3  1  0  0  0  0
  9  4  1  0  0  0  0
 11 12  2  0  0  0  0
 11 15  1  0  0  0  0
 13 11  1  0  0  0  0
 14 13  1  0  0  0  0
 15 16  1  0  0  0  0
 15 18  1  0  0  0  0
 17 15  1  0  0  0  0
 19 21  2  0  0  0  0
 19 22  1  0  0  0  0
 20 19  2  0  0  0  0
 22 23  1  0  0  0  0
 22 24  1  0  0  0  0
M  END
>  <MODEL>
27

>  <REMARK>
 VINA RESULT:    -5.109      2.272      2.501
 INTER + INTRA:          -5.869
 INTER:                  -5.629
 INTRA:                  -0.240
 UNBOUND:                 0.136
  Name = 
  4 active torsions:
  status: ('A' for Active; 'I' for Inactive)
    1  A    between atoms: C_1  and  C_2
    2  A    between atoms: N_4  and  C_5
    3  A    between atoms: C_9  and  S_11
    4  A    between atoms: S_11  and  N_14
                            x       y       z     vdW  Elec       q    Type
                         _______ _______ _______ _____ _____    ______ ____

>  <TORSDO>
F 4

$$$$
=
 OpenBabel07192307433D

 24 24  0  0  0  0  0  0  0  0999 V2000
    5.2490    5.3470   18.9540 C   0  0  0  0  0  0  0  0  0  0  0  0
    6.5080    5.4570   19.5540 C   0  0  0  0  0  0  0  0  0  0  0  0
    7.6760    5.3840   18.7870 C   0  0  0  0  0  0  0  0  0  0  0  0
    7.6010    5.2070   17.4080 C   0  0  0  0  0  0  0  0  0  0  0  0
    6.3470    5.1120   16.8040 C   0  0  0  0  0  0  0  0  0  0  0  0
    5.1750    5.1710   17.5680 C   0  0  0  0  0  0  0  0  0  0  0  0
    6.6170    5.5930   20.6260 H   0  0  0  0  0  0  0  0  0  0  0  0
    8.6450    5.4640   19.2750 H   0  0  0  0  0  0  0  0  0  0  0  0
    8.5130    5.1440   16.8190 H   0  0  0  0  0  0  0  0  0  0  0  0
    4.2110    5.0780   17.0750 H   0  0  0  0  0  0  0  0  0  0  0  0
    3.2390    4.3330   20.0560 C   0  0  0  0  0  0  0  0  0  0  0  0
    3.4490    3.1430   19.8540 O   0  0  0  0  0  0  0  0  0  0  0  0
    4.0300    5.3990   19.6610 N   0  0  0  0  0  0  0  0  0  0  0  0
    3.6930    6.3240   19.8960 H   0  0  0  0  0  0  0  0  0  0  0  0
    1.9960    4.7860   20.7810 C   0  0  0  0  0  0  0  0  0  0  0  0
    1.2500    5.1140   20.0520 H   0  0  0  0  0  0  0  0  0  0  0  0
    2.2230    5.6050   21.4700 H   0  0  0  0  0  0  0  0  0  0  0  0
    1.5920    3.9540   21.3640 H   0  0  0  0  0  0  0  0  0  0  0  0
    6.2410    4.8580   15.0590 S   0  0  0  0  0  0  0  0  0  0  0  0
    7.5360    5.0950   14.4650 O   0  0  0  0  0  0  0  0  0  0  0  0
    5.0350    5.4770   14.5600 O   0  0  0  0  0  0  0  0  0  0  0  0
    5.9910    3.2020   14.9630 N   0  0  0  0  0  0  0  0  0  0  0  0
    6.2800    2.8580   14.0480 H   0  0  0  0  0  0  0  0  0  0  0  0
    5.0220    2.9830   15.1970 H   0  0  0  0  0  0  0  0  0  0  0  0
  1  2  1  0  0  0  0
  1 13  1  0  0  0  0
  2  7  1  0  0  0  0
  3  8  1  0  0  0  0
  3  2  2  0  0  0  0
  4  3  1  0  0  0  0
  5  4  2  0  0  0  0
  5  6  1  0  0  0  0
  6  1  2  0  0  0  0
  9  4  1  0  0  0  0
 10  6  1  0  0  0  0
 11 15  1  0  0  0  0
 12 11  2  0  0  0  0
 13 14  1  0  0  0  0
 13 11  1  0  0  0  0
 15 18  1  0  0  0  0
 15 17  1  0  0  0  0
 16 15  1  0  0  0  0
 19  5  1  0  0  0  0
 20 19  2  0  0  0  0
 21 19  2  0  0  0  0
 22 19  1  0  0  0  0
 22 24  1  0  0  0  0
 23 22  1  0  0  0  0
M  END
>  <MODEL>
28

>  <REMARK>
 VINA RESULT:    -5.057      2.759      3.285
 INTER + INTRA:          -5.807
 INTER:                  -5.569
 INTRA:                  -0.238
 UNBOUND:                 0.136
  Name = 
  4 active torsions:
  status: ('A' for Active; 'I' for Inactive)
    1  A    between atoms: C_1  and  C_2
    2  A    between atoms: N_4  and  C_5
    3  A    between atoms: C_9  and  S_11
    4  A    between atoms: S_11  and  N_14
                            x       y       z     vdW  Elec       q    Type
                         _______ _______ _______ _____ _____    ______ ____

>  <TORSDO>
F 4

$$$$
=
 OpenBabel07192307433D

 24 24  0  0  0  0  0  0  0  0999 V2000
    2.9010    6.5810   18.4080 C   0  0  0  0  0  0  0  0  0  0  0  0
    2.6940    6.0450   19.6820 C   0  0  0  0  0  0  0  0  0  0  0  0
    1.9710    6.7530   20.6500 C   0  0  0  0  0  0  0  0  0  0  0  0
    1.4400    8.0060   20.3510 C   0  0  0  0  0  0  0  0  0  0  0  0
    1.6310    8.5370   19.0750 C   0  0  0  0  0  0  0  0  0  0  0  0
    2.3650    7.8380   18.1080 C   0  0  0  0  0  0  0  0  0  0  0  0
    3.0910    5.0730   19.9630 H   0  0  0  0  0  0  0  0  0  0  0  0
    1.8300    6.3210   21.6380 H   0  0  0  0  0  0  0  0  0  0  0  0
    0.8860    8.5540   21.1100 H   0  0  0  0  0  0  0  0  0  0  0  0
    2.5130    8.2820   17.1270 H   0  0  0  0  0  0  0  0  0  0  0  0
    4.9300    6.1820   16.9910 C   0  0  0  0  0  0  0  0  0  0  0  0
    5.6940    7.0220   17.4510 O   0  0  0  0  0  0  0  0  0  0  0  0
    3.6270    5.9330   17.3860 N   0  0  0  0  0  0  0  0  0  0  0  0
    3.1310    5.2110   16.8800 H   0  0  0  0  0  0  0  0  0  0  0  0
    5.3570    5.2930   15.8490 C   0  0  0  0  0  0  0  0  0  0  0  0
    4.9250    5.6680   14.9170 H   0  0  0  0  0  0  0  0  0  0  0  0
    5.0350    4.2610   16.0160 H   0  0  0  0  0  0  0  0  0  0  0  0
    6.4480    5.3000   15.7730 H   0  0  0  0  0  0  0  0  0  0  0  0
    0.9860   10.1370   18.6960 S   0  0  0  0  0  0  0  0  0  0  0  0
    1.1730   11.0060   19.8340 O   0  0  0  0  0  0  0  0  0  0  0  0
   -0.2880    9.9920   18.0320 O   0  0  0  0  0  0  0  0  0  0  0  0
    2.0630   10.6780   17.5280 N   0  0  0  0  0  0  0  0  0  0  0  0
    2.5160   11.5350   17.8420 H   0  0  0  0  0  0  0  0  0  0  0  0
    1.5840   10.7710   16.6310 H   0  0  0  0  0  0  0  0  0  0  0  0
  1  2  1  0  0  0  0
  2  7  1  0  0  0  0
  2  3  2  0  0  0  0
  3  8  1  0  0  0  0
  4  3  1  0  0  0  0
  4  9  1  0  0  0  0
  5  4  2  0  0  0  0
  6  1  2  0  0  0  0
  6  5  1  0  0  0  0
 10  6  1  0  0  0  0
 11 13  1  0  0  0  0
 11 12  2  0  0  0  0
 13  1  1  0  0  0  0
 14 13  1  0  0  0  0
 15 17  1  0  0  0  0
 15 11  1  0  0  0  0
 16 15  1  0  0  0  0
 18 15  1  0  0  0  0
 19  5  1  0  0  0  0
 19 20  2  0  0  0  0
 21 19  2  0  0  0  0
 22 23  1  0  0  0  0
 22 19  1  0  0  0  0
 24 22  1  0  0  0  0
M  END
>  <MODEL>
29

>  <REMARK>
 VINA RESULT:    -5.041      4.595      5.965
 INTER + INTRA:          -5.789
 INTER:                  -5.554
 INTRA:                  -0.235
 UNBOUND:                 0.136
  Name = 
  4 active torsions:
  status: ('A' for Active; 'I' for Inactive)
    1  A    between atoms: C_1  and  C_2
    2  A    between atoms: N_4  and  C_5
    3  A    between atoms: C_9  and  S_11
    4  A    between atoms: S_11  and  N_14
                            x       y       z     vdW  Elec       q    Type
                         _______ _______ _______ _____ _____    ______ ____

>  <TORSDO>
F 4

$$$$
=
 OpenBabel07192307433D

 24 24  0  0  0  0  0  0  0  0999 V2000
   -0.8740   11.2550   18.6390 C   0  0  0  0  0  0  0  0  0  0  0  0
   -0.5970   12.5840   18.9730 C   0  0  0  0  0  0  0  0  0  0  0  0
   -0.1090   12.9180   20.2420 C   0  0  0  0  0  0  0  0  0  0  0  0
    0.1140   11.9240   21.1910 C   0  0  0  0  0  0  0  0  0  0  0  0
   -0.1470   10.5950   20.8570 C   0  0  0  0  0  0  0  0  0  0  0  0
   -0.6480   10.2570   19.5930 C   0  0  0  0  0  0  0  0  0  0  0  0
   -0.7570   13.3940   18.2670 H   0  0  0  0  0  0  0  0  0  0  0  0
    0.0920   13.9590   20.4830 H   0  0  0  0  0  0  0  0  0  0  0  0
    0.4860   12.1910   22.1780 H   0  0  0  0  0  0  0  0  0  0  0  0
   -0.8580    9.2160   19.3630 H   0  0  0  0  0  0  0  0  0  0  0  0
   -2.6610   11.0130   16.8990 C   0  0  0  0  0  0  0  0  0  0  0  0
   -3.6050   11.5470   17.4700 O   0  0  0  0  0  0  0  0  0  0  0  0
   -1.3780   10.8430   17.3870 N   0  0  0  0  0  0  0  0  0  0  0  0
   -0.7240   10.3590   16.7840 H   0  0  0  0  0  0  0  0  0  0  0  0
   -2.8270   10.4240   15.5190 C   0  0  0  0  0  0  0  0  0  0  0  0
   -2.9850   11.2300   14.7980 H   0  0  0  0  0  0  0  0  0  0  0  0
   -3.6740    9.7320   15.4900 H   0  0  0  0  0  0  0  0  0  0  0  0
   -1.9250    9.8680   15.2510 H   0  0  0  0  0  0  0  0  0  0  0  0
    0.1060    9.3300   22.0640 S   0  0  0  0  0  0  0  0  0  0  0  0
    1.5140    9.2440   22.3730 O   0  0  0  0  0  0  0  0  0  0  0  0
   -0.6830    8.1720   21.7120 O   0  0  0  0  0  0  0  0  0  0  0  0
   -0.6200    9.9960   23.4220 N   0  0  0  0  0  0  0  0  0  0  0  0
   -1.1900    9.2930   23.8930 H   0  0  0  0  0  0  0  0  0  0  0  0
   -1.1370   10.8360   23.1620 H   0  0  0  0  0  0  0  0  0  0  0  0
  1  2  2  0  0  0  0
  1  6  1  0  0  0  0
  2  3  1  0  0  0  0
  3  8  1  0  0  0  0
  3  4  2  0  0  0  0
  4  9  1  0  0  0  0
  5  4  1  0  0  0  0
  5 19  1  0  0  0  0
  6  5  2  0  0  0  0
  7  2  1  0  0  0  0
 10  6  1  0  0  0  0
 11 13  1  0  0  0  0
 11 12  2  0  0  0  0
 13  1  1  0  0  0  0
 14 13  1  0  0  0  0
 15 11  1  0  0  0  0
 16 15  1  0  0  0  0
 17 15  1  0  0  0  0
 18 15  1  0  0  0  0
 19 20  2  0  0  0  0
 19 22  1  0  0  0  0
 21 19  2  0  0  0  0
 22 23  1  0  0  0  0
 24 22  1  0  0  0  0
M  END
>  <MODEL>
30

>  <REMARK>
 VINA RESULT:    -4.972      7.733      8.930
 INTER + INTRA:          -5.707
 INTER:                  -5.470
 INTRA:                  -0.237
 UNBOUND:                 0.136
  Name = 
  4 active torsions:
  status: ('A' for Active; 'I' for Inactive)
    1  A    between atoms: C_1  and  C_2
    2  A    between atoms: N_4  and  C_5
    3  A    between atoms: C_9  and  S_11
    4  A    between atoms: S_11  and  N_14
                            x       y       z     vdW  Elec       q    Type
                         _______ _______ _______ _____ _____    ______ ____

>  <TORSDO>
F 4

$$$$
=
 OpenBabel07192307433D

 24 24  0  0  0  0  0  0  0  0999 V2000
    2.1690    5.8850   19.5790 C   0  0  0  0  0  0  0  0  0  0  0  0
    1.9020    5.5260   20.9040 C   0  0  0  0  0  0  0  0  0  0  0  0
    2.1340    4.2200   21.3530 C   0  0  0  0  0  0  0  0  0  0  0  0
    2.6410    3.2580   20.4830 C   0  0  0  0  0  0  0  0  0  0  0  0
    2.9230    3.6170   19.1650 C   0  0  0  0  0  0  0  0  0  0  0  0
    2.6810    4.9180   18.7070 C   0  0  0  0  0  0  0  0  0  0  0  0
    1.5030    6.2400   21.6190 H   0  0  0  0  0  0  0  0  0  0  0  0
    1.9110    3.9600   22.3860 H   0  0  0  0  0  0  0  0  0  0  0  0
    2.8110    2.2440   20.8370 H   0  0  0  0  0  0  0  0  0  0  0  0
    2.8940    5.1680   17.6710 H   0  0  0  0  0  0  0  0  0  0  0  0
    2.7210    7.8420   18.1140 C   0  0  0  0  0  0  0  0  0  0  0  0
    3.7440    7.4370   17.5740 O   0  0  0  0  0  0  0  0  0  0  0  0
    1.9520    7.1750   19.0510 N   0  0  0  0  0  0  0  0  0  0  0  0
    1.1450    7.6700   19.4090 H   0  0  0  0  0  0  0  0  0  0  0  0
    2.1790    9.2160   17.8070 C   0  0  0  0  0  0  0  0  0  0  0  0
    2.3900    9.8840   18.6470 H   0  0  0  0  0  0  0  0  0  0  0  0
    1.1010    9.1790   17.6260 H   0  0  0  0  0  0  0  0  0  0  0  0
    2.6610    9.6040   16.9050 H   0  0  0  0  0  0  0  0  0  0  0  0
    3.5400    2.3970   18.0460 S   0  0  0  0  0  0  0  0  0  0  0  0
    4.0370    1.2700   18.8000 O   0  0  0  0  0  0  0  0  0  0  0  0
    4.3170    3.0450   17.0160 O   0  0  0  0  0  0  0  0  0  0  0  0
    2.1330    1.8640   17.3030 N   0  0  0  0  0  0  0  0  0  0  0  0
    1.7670    1.0480   17.7940 H   0  0  0  0  0  0  0  0  0  0  0  0
    2.3050    1.7020   16.3100 H   0  0  0  0  0  0  0  0  0  0  0  0
  1  2  1  0  0  0  0
  2  3  2  0  0  0  0
  2  7  1  0  0  0  0
  3  8  1  0  0  0  0
  4  9  1  0  0  0  0
  4  3  1  0  0  0  0
  5  4  2  0  0  0  0
  6  5  1  0  0  0  0
  6  1  2  0  0  0  0
 10  6  1  0  0  0  0
 11 13  1  0  0  0  0
 12 11  2  0  0  0  0
 13 14  1  0  0  0  0
 13  1  1  0  0  0  0
 15 11  1  0  0  0  0
 15 16  1  0  0  0  0
 17 15  1  0  0  0  0
 18 15  1  0  0  0  0
 19 20  2  0  0  0  0
 19  5  1  0  0  0  0
 21 19  2  0  0  0  0
 22 23  1  0  0  0  0
 22 19  1  0  0  0  0
 24 22  1  0  0  0  0
M  END
>  <MODEL>
31

>  <REMARK>
 VINA RESULT:    -4.954      3.198      4.963
 INTER + INTRA:          -5.687
 INTER:                  -5.823
 INTRA:                   0.136
 UNBOUND:                 0.136
  Name = 
  4 active torsions:
  status: ('A' for Active; 'I' for Inactive)
    1  A    between atoms: C_1  and  C_2
    2  A    between atoms: N_4  and  C_5
    3  A    between atoms: C_9  and  S_11
    4  A    between atoms: S_11  and  N_14
                            x       y       z     vdW  Elec       q    Type
                         _______ _______ _______ _____ _____    ______ ____

>  <TORSDO>
F 4

$$$$
=
 OpenBabel07192307433D

 24 24  0  0  0  0  0  0  0  0999 V2000
    2.3680    6.8660   19.4500 C   0  0  0  0  0  0  0  0  0  0  0  0
    1.6070    6.2850   20.4690 C   0  0  0  0  0  0  0  0  0  0  0  0
    1.6470    4.9040   20.6960 C   0  0  0  0  0  0  0  0  0  0  0  0
    2.4560    4.0870   19.9100 C   0  0  0  0  0  0  0  0  0  0  0  0
    3.2280    4.6650   18.9020 C   0  0  0  0  0  0  0  0  0  0  0  0
    3.1810    6.0440   18.6620 C   0  0  0  0  0  0  0  0  0  0  0  0
    0.9590    6.8810   21.1060 H   0  0  0  0  0  0  0  0  0  0  0  0
    1.0400    4.4720   21.4890 H   0  0  0  0  0  0  0  0  0  0  0  0
    2.4770    3.0150   20.0870 H   0  0  0  0  0  0  0  0  0  0  0  0
    3.7810    6.4670   17.8600 H   0  0  0  0  0  0  0  0  0  0  0  0
    1.6280    8.9000   18.1870 C   0  0  0  0  0  0  0  0  0  0  0  0
    0.8340    8.4000   17.4000 O   0  0  0  0  0  0  0  0  0  0  0  0
    2.3700    8.2450   19.1540 N   0  0  0  0  0  0  0  0  0  0  0  0
    2.9960    8.8160   19.7080 H   0  0  0  0  0  0  0  0  0  0  0  0
    1.9120   10.3820   18.1590 C   0  0  0  0  0  0  0  0  0  0  0  0
    1.9960   10.7540   19.1840 H   0  0  0  0  0  0  0  0  0  0  0  0
    1.1190   10.9220   17.6340 H   0  0  0  0  0  0  0  0  0  0  0  0
    2.8520   10.5610   17.6300 H   0  0  0  0  0  0  0  0  0  0  0  0
    4.2350    3.6340   17.8810 S   0  0  0  0  0  0  0  0  0  0  0  0
    4.4770    4.3030   16.6230 O   0  0  0  0  0  0  0  0  0  0  0  0
    3.7550    2.2750   17.9560 O   0  0  0  0  0  0  0  0  0  0  0  0
    5.7000    3.6590   18.6990 N   0  0  0  0  0  0  0  0  0  0  0  0
    5.5500    3.9120   19.6750 H   0  0  0  0  0  0  0  0  0  0  0  0
    6.3580    4.2700   18.2130 H   0  0  0  0  0  0  0  0  0  0  0  0
  1  2  1  0  0  0  0
  2  3  2  0  0  0  0
  2  7  1  0  0  0  0
  3  8  1  0  0  0  0
  4  9  1  0  0  0  0
  4  3  1  0  0  0  0
  5  4  2  0  0  0  0
  6  5  1  0  0  0  0
  6  1  2  0  0  0  0
 10  6  1  0  0  0  0
 11 13  1  0  0  0  0
 12 11  2  0  0  0  0
 13  1  1  0  0  0  0
 13 14  1  0  0  0  0
 15 11  1  0  0  0  0
 15 16  1  0  0  0  0
 17 15  1  0  0  0  0
 18 15  1  0  0  0  0
 19 21  2  0  0  0  0
 19 22  1  0  0  0  0
 19  5  1  0  0  0  0
 20 19  2  0  0  0  0
 22 23  1  0  0  0  0
 24 22  1  0  0  0  0
M  END
>  <MODEL>
32

>  <REMARK>
 VINA RESULT:    -4.942      3.178      4.599
 INTER + INTRA:          -5.672
 INTER:                  -5.426
 INTRA:                  -0.246
 UNBOUND:                 0.136
  Name = 
  4 active torsions:
  status: ('A' for Active; 'I' for Inactive)
    1  A    between atoms: C_1  and  C_2
    2  A    between atoms: N_4  and  C_5
    3  A    between atoms: C_9  and  S_11
    4  A    between atoms: S_11  and  N_14
                            x       y       z     vdW  Elec       q    Type
                         _______ _______ _______ _____ _____    ______ ____

>  <TORSDO>
F 4

$$$$
=
 OpenBabel07192307433D

 24 24  0  0  0  0  0  0  0  0999 V2000
   -0.7160   10.5120   18.3140 C   0  0  0  0  0  0  0  0  0  0  0  0
    0.4180    9.7070   18.4620 C   0  0  0  0  0  0  0  0  0  0  0  0
    1.0730    9.6100   19.6950 C   0  0  0  0  0  0  0  0  0  0  0  0
    0.5970   10.3140   20.7990 C   0  0  0  0  0  0  0  0  0  0  0  0
   -0.5430   11.1060   20.6590 C   0  0  0  0  0  0  0  0  0  0  0  0
   -1.1940   11.2160   19.4240 C   0  0  0  0  0  0  0  0  0  0  0  0
    0.8270    9.1410   17.6290 H   0  0  0  0  0  0  0  0  0  0  0  0
    1.9580    8.9840   19.7860 H   0  0  0  0  0  0  0  0  0  0  0  0
    1.1150   10.2400   21.7520 H   0  0  0  0  0  0  0  0  0  0  0  0
   -2.0700   11.8530   19.3380 H   0  0  0  0  0  0  0  0  0  0  0  0
   -2.6360   10.1010   16.7560 C   0  0  0  0  0  0  0  0  0  0  0  0
   -3.3210    9.3480   17.4370 O   0  0  0  0  0  0  0  0  0  0  0  0
   -1.4210   10.6680   17.1020 N   0  0  0  0  0  0  0  0  0  0  0  0
   -0.9810   11.2550   16.4050 H   0  0  0  0  0  0  0  0  0  0  0  0
   -3.0680   10.4900   15.3630 C   0  0  0  0  0  0  0  0  0  0  0  0
   -4.1540   10.6120   15.3420 H   0  0  0  0  0  0  0  0  0  0  0  0
   -2.7680    9.7310   14.6350 H   0  0  0  0  0  0  0  0  0  0  0  0
   -2.5910   11.4340   15.0850 H   0  0  0  0  0  0  0  0  0  0  0  0
   -1.1370   12.0250   22.0460 S   0  0  0  0  0  0  0  0  0  0  0  0
   -2.5660   12.2000   21.9210 O   0  0  0  0  0  0  0  0  0  0  0  0
   -0.2410   13.1260   22.3070 O   0  0  0  0  0  0  0  0  0  0  0  0
   -0.9190   10.9360   23.3040 N   0  0  0  0  0  0  0  0  0  0  0  0
   -1.0950   11.3950   24.1970 H   0  0  0  0  0  0  0  0  0  0  0  0
    0.0060   10.5090   23.2360 H   0  0  0  0  0  0  0  0  0  0  0  0
  1  2  2  0  0  0  0
  1  6  1  0  0  0  0
  2  3  1  0  0  0  0
  3  8  1  0  0  0  0
  3  4  2  0  0  0  0
  4  9  1  0  0  0  0
  5  4  1  0  0  0  0
  5 19  1  0  0  0  0
  6  5  2  0  0  0  0
  7  2  1  0  0  0  0
 10  6  1  0  0  0  0
 11 13  1  0  0  0  0
 11 12  2  0  0  0  0
 13  1  1  0  0  0  0
 14 13  1  0  0  0  0
 15 11  1  0  0  0  0
 16 15  1  0  0  0  0
 17 15  1  0  0  0  0
 18 15  1  0  0  0  0
 19 21  2  0  0  0  0
 19 22  1  0  0  0  0
 20 19  2  0  0  0  0
 22 23  1  0  0  0  0
 24 22  1  0  0  0  0
M  END
>  <MODEL>
33

>  <REMARK>
 VINA RESULT:    -4.870      8.134      9.240
 INTER + INTRA:          -5.588
 INTER:                  -5.362
 INTRA:                  -0.226
 UNBOUND:                 0.136
  Name = 
  4 active torsions:
  status: ('A' for Active; 'I' for Inactive)
    1  A    between atoms: C_1  and  C_2
    2  A    between atoms: N_4  and  C_5
    3  A    between atoms: C_9  and  S_11
    4  A    between atoms: S_11  and  N_14
                            x       y       z     vdW  Elec       q    Type
                         _______ _______ _______ _____ _____    ______ ____

>  <TORSDO>
F 4

$$$$
