=
 OpenBabel07192307433D

 68 73  0  0  0  0  0  0  0  0999 V2000
    1.3270    7.8820   20.3410 N   0  0  0  0  0  0  0  0  0  0  0  0
    1.3110    6.5290   20.8760 C   0  0  0  0  0  0  0  0  0  0  0  0
    2.1960    5.7680   19.9440 C   0  0  0  0  0  0  0  0  0  0  0  0
    2.6670    6.6190   18.9530 C   0  0  0  0  0  0  0  0  0  0  0  0
    3.4980    6.1890   17.9360 C   0  0  0  0  0  0  0  0  0  0  0  0
    3.8780    4.8370   17.9180 C   0  0  0  0  0  0  0  0  0  0  0  0
    3.4010    3.9680   18.9270 C   0  0  0  0  0  0  0  0  0  0  0  0
    2.5530    4.4230   19.9570 C   0  0  0  0  0  0  0  0  0  0  0  0
    2.1220    7.9620   19.1900 C   0  0  0  0  0  0  0  0  0  0  0  0
    2.3710    8.8960   18.4500 O   0  0  0  0  0  0  0  0  0  0  0  0
    0.2910    6.1320   20.8470 H   0  0  0  0  0  0  0  0  0  0  0  0
    1.7210    6.5270   21.8930 H   0  0  0  0  0  0  0  0  0  0  0  0
    3.8460    6.8840   17.1760 H   0  0  0  0  0  0  0  0  0  0  0  0
    3.6970    2.9180   18.9060 H   0  0  0  0  0  0  0  0  0  0  0  0
   -0.6840   11.0690   20.6720 C   0  0  0  0  0  0  0  0  0  0  0  0
   -0.8700   11.0690   22.0640 C   0  0  0  0  0  0  0  0  0  0  0  0
   -0.3570   10.0570   22.8730 C   0  0  0  0  0  0  0  0  0  0  0  0
    0.3700    9.0070   22.3120 C   0  0  0  0  0  0  0  0  0  0  0  0
    0.5850    8.9420   20.9340 C   0  0  0  0  0  0  0  0  0  0  0  0
    0.0420    9.9740   20.1410 C   0  0  0  0  0  0  0  0  0  0  0  0
   -1.4490   11.8660   22.5320 H   0  0  0  0  0  0  0  0  0  0  0  0
   -0.5300   10.0810   23.9460 H   0  0  0  0  0  0  0  0  0  0  0  0
    0.7450    8.2450   22.9860 H   0  0  0  0  0  0  0  0  0  0  0  0
    0.1790    9.9560   19.0630 H   0  0  0  0  0  0  0  0  0  0  0  0
   -1.2570   12.2430   19.7390 C   0  0  0  0  0  0  0  0  0  0  0  0
   -0.9730   13.7150   20.1680 C   0  0  0  0  0  0  0  0  0  0  0  0
   -0.6450   14.0690   18.7940 O   0  0  0  0  0  0  0  0  0  0  0  0
   -0.3750   12.6640   18.5260 C   0  0  0  0  0  0  0  0  0  0  0  0
   -0.1080   13.8680   20.8240 H   0  0  0  0  0  0  0  0  0  0  0  0
   -1.8140   14.2980   20.5460 H   0  0  0  0  0  0  0  0  0  0  0  0
   -0.7280   12.3610   17.5360 H   0  0  0  0  0  0  0  0  0  0  0  0
    0.6990   12.4560   18.6040 H   0  0  0  0  0  0  0  0  0  0  0  0
   -2.7060   11.9620   19.2900 C   0  0  0  0  0  0  0  0  0  0  0  0
   -3.2260   11.3600   20.0450 H   0  0  0  0  0  0  0  0  0  0  0  0
   -3.2710   12.9030   19.2390 H   0  0  0  0  0  0  0  0  0  0  0  0
   -3.8920   11.2950   17.1410 N   0  0  0  0  0  0  0  0  0  0  0  0
   -3.5680   10.5230   16.0680 C   0  0  0  0  0  0  0  0  0  0  0  0
   -2.3490   10.0650   16.2100 N   0  0  0  0  0  0  0  0  0  0  0  0
   -1.8600   10.5460   17.4000 N   0  0  0  0  0  0  0  0  0  0  0  0
   -2.7980   11.2760   17.9710 C   0  0  0  0  0  0  0  0  0  0  0  0
   -4.2300   10.3290   15.2330 H   0  0  0  0  0  0  0  0  0  0  0  0
   -5.1370   11.9850   17.3360 C   0  0  0  0  0  0  0  0  0  0  0  0
   -5.8650   11.5840   16.6270 H   0  0  0  0  0  0  0  0  0  0  0  0
   -4.9840   13.0540   17.1690 H   0  0  0  0  0  0  0  0  0  0  0  0
   -5.4900   11.8260   18.3590 H   0  0  0  0  0  0  0  0  0  0  0  0
    2.0450    3.4980   21.0300 C   0  0  0  0  0  0  0  0  0  0  0  0
    2.5550    2.2400   20.9110 F   0  0  0  0  0  0  0  0  0  0  0  0
    2.3410    3.9060   22.2940 F   0  0  0  0  0  0  0  0  0  0  0  0
    0.6920    3.3530   20.9870 F   0  0  0  0  0  0  0  0  0  0  0  0
    4.7610    4.3060   16.8030 C   0  0  0  0  0  0  0  0  0  0  0  0
    4.3760    4.7530   15.8760 H   0  0  0  0  0  0  0  0  0  0  0  0
    4.6380    3.2200   16.6970 H   0  0  0  0  0  0  0  0  0  0  0  0
    6.1780    4.6440   16.9750 N   0  0  0  0  0  0  0  0  0  0  0  0
    6.5930    5.8330   16.2140 C   0  0  0  0  0  0  0  0  0  0  0  0
    6.8310    7.0710   17.0780 C   0  0  0  0  0  0  0  0  0  0  0  0
    7.8890    6.8120   18.1490 C   0  0  0  0  0  0  0  0  0  0  0  0
    7.8810    5.3640   18.6350 C   0  0  0  0  0  0  0  0  0  0  0  0
    6.5240    4.7020   18.4030 C   0  0  0  0  0  0  0  0  0  0  0  0
    7.5300    5.5830   15.7000 H   0  0  0  0  0  0  0  0  0  0  0  0
    5.8830    6.0860   15.4180 H   0  0  0  0  0  0  0  0  0  0  0  0
    7.1430    7.9140   16.4520 H   0  0  0  0  0  0  0  0  0  0  0  0
    5.8890    7.3670   17.5570 H   0  0  0  0  0  0  0  0  0  0  0  0
    7.7210    7.4940   18.9900 H   0  0  0  0  0  0  0  0  0  0  0  0
    8.8850    7.0480   17.7560 H   0  0  0  0  0  0  0  0  0  0  0  0
    8.1420    5.3270   19.6990 H   0  0  0  0  0  0  0  0  0  0  0  0
    8.6590    4.7960   18.1070 H   0  0  0  0  0  0  0  0  0  0  0  0
    5.7620    5.2530   18.9700 H   0  0  0  0  0  0  0  0  0  0  0  0
    6.5530    3.6830   18.8050 H   0  0  0  0  0  0  0  0  0  0  0  0
  1  2  1  0  0  0  0
  1 19  1  0  0  0  0
  2 12  1  0  0  0  0
  3  8  1  0  0  0  0
  3  2  1  0  0  0  0
  4  9  1  0  0  0  0
  4  3  2  0  0  0  0
  5  4  1  0  0  0  0
  6  5  2  0  0  0  0
  6  7  1  0  0  0  0
  7  8  2  0  0  0  0
  8 46  1  0  0  0  0
  9  1  1  0  0  0  0
 10  9  2  0  0  0  0
 11  2  1  0  0  0  0
 13  5  1  0  0  0  0
 14  7  1  0  0  0  0
 15 16  1  0  0  0  0
 16 21  1  0  0  0  0
 16 17  2  0  0  0  0
 17 22  1  0  0  0  0
 18 17  1  0  0  0  0
 18 23  1  0  0  0  0
 19 18  2  0  0  0  0
 20 15  2  0  0  0  0
 20 19  1  0  0  0  0
 24 20  1  0  0  0  0
 25 26  1  0  0  0  0
 25 15  1  0  0  0  0
 26 30  1  0  0  0  0
 26 29  1  0  0  0  0
 27 26  1  0  0  0  0
 28 32  1  0  0  0  0
 28 27  1  0  0  0  0
 28 25  1  0  0  0  0
 31 28  1  0  0  0  0
 33 25  1  0  0  0  0
 33 34  1  0  0  0  0
 35 33  1  0  0  0  0
 36 42  1  0  0  0  0
 36 40  1  0  0  0  0
 37 38  2  0  0  0  0
 37 36  1  0  0  0  0
 38 39  1  0  0  0  0
 39 40  2  0  0  0  0
 40 33  1  0  0  0  0
 41 37  1  0  0  0  0
 42 45  1  0  0  0  0
 43 42  1  0  0  0  0
 44 42  1  0  0  0  0
 46 48  1  0  0  0  0
 47 46  1  0  0  0  0
 49 46  1  0  0  0  0
 50 53  1  0  0  0  0
 50  6  1  0  0  0  0
 51 50  1  0  0  0  0
 52 50  1  0  0  0  0
 53 58  1  0  0  0  0
 54 53  1  0  0  0  0
 54 55  1  0  0  0  0
 55 62  1  0  0  0  0
 55 56  1  0  0  0  0
 56 57  1  0  0  0  0
 56 63  1  0  0  0  0
 57 65  1  0  0  0  0
 58 57  1  0  0  0  0
 58 68  1  0  0  0  0
 58 67  1  0  0  0  0
 59 54  1  0  0  0  0
 60 54  1  0  0  0  0
 61 55  1  0  0  0  0
 64 56  1  0  0  0  0
 66 57  1  0  0  0  0
M  END
>  <MODEL>
1

>  <REMARK>
 VINA RESULT:    -9.601      0.000      0.000
 INTER + INTRA:         -14.974
 INTER:                 -14.512
 INTRA:                  -0.462
 UNBOUND:                -1.163
  Name = 
  8 active torsions:
  status: ('A' for Active; 'I' for Inactive)
    1  A    between atoms: C_1  and  N_2
    2  A    between atoms: C_6  and  C_7
    3  A    between atoms: C_7  and  C_8
    4  A    between atoms: C_8  and  C_12
    5  A    between atoms: C_16  and  N_18
    6  A    between atoms: C_23  and  C_24
    7  A    between atoms: C_24  and  N_25
    8  A    between atoms: C_32  and  C_33
                            x       y       z     vdW  Elec       q    Type
                         _______ _______ _______ _____ _____    ______ ____

>  <TORSDO>
F 8

$$$$
=
 OpenBabel07192307433D

 68 73  0  0  0  0  0  0  0  0999 V2000
    1.4010    7.8400   20.2460 N   0  0  0  0  0  0  0  0  0  0  0  0
    1.3310    6.4940   20.7950 C   0  0  0  0  0  0  0  0  0  0  0  0
    2.2680    5.7100   19.9350 C   0  0  0  0  0  0  0  0  0  0  0  0
    2.8170    6.5430   18.9690 C   0  0  0  0  0  0  0  0  0  0  0  0
    3.7100    6.0900   18.0170 C   0  0  0  0  0  0  0  0  0  0  0  0
    4.0730    4.7330   18.0410 C   0  0  0  0  0  0  0  0  0  0  0  0
    3.5160    3.8830   19.0250 C   0  0  0  0  0  0  0  0  0  0  0  0
    2.6060    4.3610   19.9890 C   0  0  0  0  0  0  0  0  0  0  0  0
    2.2740    7.8960   19.1530 C   0  0  0  0  0  0  0  0  0  0  0  0
    2.5860    8.8170   18.4210 O   0  0  0  0  0  0  0  0  0  0  0  0
    0.3110    6.1090   20.7000 H   0  0  0  0  0  0  0  0  0  0  0  0
    1.6700    6.5000   21.8370 H   0  0  0  0  0  0  0  0  0  0  0  0
    4.1190    6.7710   17.2740 H   0  0  0  0  0  0  0  0  0  0  0  0
    3.8000    2.8300   19.0370 H   0  0  0  0  0  0  0  0  0  0  0  0
   -0.7980   10.9150   20.3790 C   0  0  0  0  0  0  0  0  0  0  0  0
   -0.8760   11.0710   21.7720 C   0  0  0  0  0  0  0  0  0  0  0  0
   -0.2330   10.1960   22.6450 C   0  0  0  0  0  0  0  0  0  0  0  0
    0.5200    9.1330   22.1490 C   0  0  0  0  0  0  0  0  0  0  0  0
    0.6340    8.9170   20.7740 C   0  0  0  0  0  0  0  0  0  0  0  0
   -0.0390    9.8100   19.9170 C   0  0  0  0  0  0  0  0  0  0  0  0
   -1.4730   11.8810   22.1930 H   0  0  0  0  0  0  0  0  0  0  0  0
   -0.3250   10.3380   23.7190 H   0  0  0  0  0  0  0  0  0  0  0  0
    0.9990    8.4810   22.8720 H   0  0  0  0  0  0  0  0  0  0  0  0
    0.0160    9.6720   18.8400 H   0  0  0  0  0  0  0  0  0  0  0  0
   -1.5210   11.9330   19.3680 C   0  0  0  0  0  0  0  0  0  0  0  0
   -1.8230   11.4310   17.9240 C   0  0  0  0  0  0  0  0  0  0  0  0
   -3.1500   12.0240   17.9780 O   0  0  0  0  0  0  0  0  0  0  0  0
   -3.0760   11.9930   19.4310 C   0  0  0  0  0  0  0  0  0  0  0  0
   -1.8890   10.3440   17.7960 H   0  0  0  0  0  0  0  0  0  0  0  0
   -1.2250   11.8480   17.1120 H   0  0  0  0  0  0  0  0  0  0  0  0
   -3.5140   12.8870   19.8830 H   0  0  0  0  0  0  0  0  0  0  0  0
   -3.5860   11.1050   19.8250 H   0  0  0  0  0  0  0  0  0  0  0  0
   -0.9150   13.3500   19.4530 C   0  0  0  0  0  0  0  0  0  0  0  0
   -1.3390   13.9890   18.6690 H   0  0  0  0  0  0  0  0  0  0  0  0
   -1.2080   13.8260   20.3980 H   0  0  0  0  0  0  0  0  0  0  0  0
    1.4310   13.7900   20.3320 N   0  0  0  0  0  0  0  0  0  0  0  0
    2.6860   13.6730   19.8170 C   0  0  0  0  0  0  0  0  0  0  0  0
    2.6150   13.1970   18.5980 N   0  0  0  0  0  0  0  0  0  0  0  0
    1.2880   12.9950   18.3060 N   0  0  0  0  0  0  0  0  0  0  0  0
    0.5710   13.3680   19.3470 C   0  0  0  0  0  0  0  0  0  0  0  0
    3.5910   13.9380   20.3470 H   0  0  0  0  0  0  0  0  0  0  0  0
    1.1040   14.2590   21.6510 C   0  0  0  0  0  0  0  0  0  0  0  0
    1.2230   15.3440   21.6670 H   0  0  0  0  0  0  0  0  0  0  0  0
    1.7710   13.7860   22.3740 H   0  0  0  0  0  0  0  0  0  0  0  0
    0.0690   13.9960   21.8880 H   0  0  0  0  0  0  0  0  0  0  0  0
    2.0130    3.4570   21.0350 C   0  0  0  0  0  0  0  0  0  0  0  0
    2.3480    3.8400   22.2980 F   0  0  0  0  0  0  0  0  0  0  0  0
    0.6540    3.3990   21.0070 F   0  0  0  0  0  0  0  0  0  0  0  0
    2.4480    2.1720   20.9120 F   0  0  0  0  0  0  0  0  0  0  0  0
    5.0230    4.1780   16.9960 C   0  0  0  0  0  0  0  0  0  0  0  0
    4.6590    4.5510   16.0300 H   0  0  0  0  0  0  0  0  0  0  0  0
    4.9520    3.0830   16.9520 H   0  0  0  0  0  0  0  0  0  0  0  0
    6.4170    4.5880   17.2020 N   0  0  0  0  0  0  0  0  0  0  0  0
    6.8310    5.7090   16.3430 C   0  0  0  0  0  0  0  0  0  0  0  0
    6.9770    7.0380   17.0830 C   0  0  0  0  0  0  0  0  0  0  0  0
    7.9850    6.9340   18.2270 C   0  0  0  0  0  0  0  0  0  0  0  0
    8.0010    5.5440   18.8610 C   0  0  0  0  0  0  0  0  0  0  0  0
    6.6830    4.8080   18.6320 C   0  0  0  0  0  0  0  0  0  0  0  0
    7.8020    5.4460   15.9060 H   0  0  0  0  0  0  0  0  0  0  0  0
    6.1550    5.8500   15.4900 H   0  0  0  0  0  0  0  0  0  0  0  0
    7.2930    7.8240   16.3880 H   0  0  0  0  0  0  0  0  0  0  0  0
    6.0010    7.3440   17.4810 H   0  0  0  0  0  0  0  0  0  0  0  0
    7.7470    7.6910   18.9820 H   0  0  0  0  0  0  0  0  0  0  0  0
    8.9920    7.1690   17.8620 H   0  0  0  0  0  0  0  0  0  0  0  0
    8.2060    5.6280   19.9340 H   0  0  0  0  0  0  0  0  0  0  0  0
    8.8260    4.9570   18.4360 H   0  0  0  0  0  0  0  0  0  0  0  0
    5.8720    5.3830   19.0990 H   0  0  0  0  0  0  0  0  0  0  0  0
    6.7260    3.8370   19.1400 H   0  0  0  0  0  0  0  0  0  0  0  0
  1 19  1  0  0  0  0
  1  2  1  0  0  0  0
  2 12  1  0  0  0  0
  3  8  1  0  0  0  0
  3  2  1  0  0  0  0
  4  9  1  0  0  0  0
  4  3  2  0  0  0  0
  5  6  2  0  0  0  0
  5  4  1  0  0  0  0
  6  7  1  0  0  0  0
  7 14  1  0  0  0  0
  7  8  2  0  0  0  0
  8 46  1  0  0  0  0
  9  1  1  0  0  0  0
 10  9  2  0  0  0  0
 11  2  1  0  0  0  0
 13  5  1  0  0  0  0
 15 16  1  0  0  0  0
 16 21  1  0  0  0  0
 16 17  2  0  0  0  0
 17 22  1  0  0  0  0
 18 17  1  0  0  0  0
 18 23  1  0  0  0  0
 19 18  2  0  0  0  0
 20 15  2  0  0  0  0
 20 19  1  0  0  0  0
 24 20  1  0  0  0  0
 25 28  1  0  0  0  0
 25 33  1  0  0  0  0
 25 15  1  0  0  0  0
 26 27  1  0  0  0  0
 26 25  1  0  0  0  0
 27 28  1  0  0  0  0
 28 32  1  0  0  0  0
 28 31  1  0  0  0  0
 29 26  1  0  0  0  0
 30 26  1  0  0  0  0
 33 35  1  0  0  0  0
 34 33  1  0  0  0  0
 36 42  1  0  0  0  0
 37 36  1  0  0  0  0
 37 41  1  0  0  0  0
 38 37  2  0  0  0  0
 39 38  1  0  0  0  0
 39 40  2  0  0  0  0
 40 33  1  0  0  0  0
 40 36  1  0  0  0  0
 42 43  1  0  0  0  0
 42 45  1  0  0  0  0
 42 44  1  0  0  0  0
 46 47  1  0  0  0  0
 48 46  1  0  0  0  0
 49 46  1  0  0  0  0
 50 53  1  0  0  0  0
 50  6  1  0  0  0  0
 51 50  1  0  0  0  0
 52 50  1  0  0  0  0
 53 58  1  0  0  0  0
 54 55  1  0  0  0  0
 54 53  1  0  0  0  0
 55 62  1  0  0  0  0
 55 56  1  0  0  0  0
 56 57  1  0  0  0  0
 56 63  1  0  0  0  0
 57 65  1  0  0  0  0
 58 57  1  0  0  0  0
 58 67  1  0  0  0  0
 58 68  1  0  0  0  0
 59 54  1  0  0  0  0
 60 54  1  0  0  0  0
 61 55  1  0  0  0  0
 64 56  1  0  0  0  0
 66 57  1  0  0  0  0
M  END
>  <MODEL>
2

>  <REMARK>
 VINA RESULT:    -9.461      1.707      2.792
 INTER + INTRA:         -14.773
 INTER:                 -13.427
 INTRA:                  -1.346
 UNBOUND:                -1.163
  Name = 
  8 active torsions:
  status: ('A' for Active; 'I' for Inactive)
    1  A    between atoms: C_1  and  N_2
    2  A    between atoms: C_6  and  C_7
    3  A    between atoms: C_7  and  C_8
    4  A    between atoms: C_8  and  C_12
    5  A    between atoms: C_16  and  N_18
    6  A    between atoms: C_23  and  C_24
    7  A    between atoms: C_24  and  N_25
    8  A    between atoms: C_32  and  C_33
                            x       y       z     vdW  Elec       q    Type
                         _______ _______ _______ _____ _____    ______ ____

>  <TORSDO>
F 8

$$$$
=
 OpenBabel07192307433D

 68 73  0  0  0  0  0  0  0  0999 V2000
    1.3940    7.8590   20.3680 N   0  0  0  0  0  0  0  0  0  0  0  0
    1.3330    6.5010   20.8900 C   0  0  0  0  0  0  0  0  0  0  0  0
    2.1260    5.7060   19.9050 C   0  0  0  0  0  0  0  0  0  0  0  0
    2.5910    6.5440   18.8990 C   0  0  0  0  0  0  0  0  0  0  0  0
    3.3440    6.0840   17.8360 C   0  0  0  0  0  0  0  0  0  0  0  0
    3.6490    4.7140   17.7840 C   0  0  0  0  0  0  0  0  0  0  0  0
    3.1770    3.8580   18.8080 C   0  0  0  0  0  0  0  0  0  0  0  0
    2.4100    4.3440   19.8850 C   0  0  0  0  0  0  0  0  0  0  0  0
    2.1320    7.9110   19.1800 C   0  0  0  0  0  0  0  0  0  0  0  0
    2.3930    8.8400   18.4380 O   0  0  0  0  0  0  0  0  0  0  0  0
    0.2920    6.1600   20.9090 H   0  0  0  0  0  0  0  0  0  0  0  0
    1.7930    6.4630   21.8830 H   0  0  0  0  0  0  0  0  0  0  0  0
    3.6900    6.7700   17.0660 H   0  0  0  0  0  0  0  0  0  0  0  0
    3.4150    2.7940   18.7600 H   0  0  0  0  0  0  0  0  0  0  0  0
    0.2630   11.3910   21.1140 C   0  0  0  0  0  0  0  0  0  0  0  0
   -0.5100   11.1380   22.2590 C   0  0  0  0  0  0  0  0  0  0  0  0
   -0.6610    9.8520   22.7720 C   0  0  0  0  0  0  0  0  0  0  0  0
   -0.0350    8.7690   22.1560 C   0  0  0  0  0  0  0  0  0  0  0  0
    0.7420    8.9490   21.0110 C   0  0  0  0  0  0  0  0  0  0  0  0
    0.8660   10.2600   20.5070 C   0  0  0  0  0  0  0  0  0  0  0  0
   -1.0280   11.9600   22.7530 H   0  0  0  0  0  0  0  0  0  0  0  0
   -1.2780    9.6890   23.6530 H   0  0  0  0  0  0  0  0  0  0  0  0
   -0.1880    7.7890   22.5960 H   0  0  0  0  0  0  0  0  0  0  0  0
    1.4550   10.4420   19.6120 H   0  0  0  0  0  0  0  0  0  0  0  0
    0.4570   12.8740   20.5310 C   0  0  0  0  0  0  0  0  0  0  0  0
    1.4480   13.8220   21.2710 C   0  0  0  0  0  0  0  0  0  0  0  0
    1.9980   14.2680   20.0000 O   0  0  0  0  0  0  0  0  0  0  0  0
    1.5020   13.0440   19.3870 C   0  0  0  0  0  0  0  0  0  0  0  0
    2.2200   13.3340   21.8780 H   0  0  0  0  0  0  0  0  0  0  0  0
    1.0210   14.6500   21.8400 H   0  0  0  0  0  0  0  0  0  0  0  0
    1.1050   13.2200   18.3830 H   0  0  0  0  0  0  0  0  0  0  0  0
    2.2960   12.2900   19.3320 H   0  0  0  0  0  0  0  0  0  0  0  0
   -0.8910   13.5160   20.1390 C   0  0  0  0  0  0  0  0  0  0  0  0
   -1.4760   13.7430   21.0380 H   0  0  0  0  0  0  0  0  0  0  0  0
   -0.7170   14.4880   19.6600 H   0  0  0  0  0  0  0  0  0  0  0  0
   -3.0060   12.2820   19.4530 N   0  0  0  0  0  0  0  0  0  0  0  0
   -3.3610   11.5000   18.3960 C   0  0  0  0  0  0  0  0  0  0  0  0
   -2.3570   11.4180   17.5580 N   0  0  0  0  0  0  0  0  0  0  0  0
   -1.3230   12.1600   18.0720 N   0  0  0  0  0  0  0  0  0  0  0  0
   -1.7090   12.6700   19.2250 C   0  0  0  0  0  0  0  0  0  0  0  0
   -4.3280   11.0280   18.2820 H   0  0  0  0  0  0  0  0  0  0  0  0
   -3.8480   12.6210   20.5670 C   0  0  0  0  0  0  0  0  0  0  0  0
   -3.6800   13.6720   20.8170 H   0  0  0  0  0  0  0  0  0  0  0  0
   -3.5980   11.9780   21.4130 H   0  0  0  0  0  0  0  0  0  0  0  0
   -4.8970   12.4690   20.2960 H   0  0  0  0  0  0  0  0  0  0  0  0
    1.9080    3.4330   20.9730 C   0  0  0  0  0  0  0  0  0  0  0  0
    2.2790    2.1380   20.7730 F   0  0  0  0  0  0  0  0  0  0  0  0
    2.3500    3.7640   22.2160 F   0  0  0  0  0  0  0  0  0  0  0  0
    0.5480    3.4200   21.0470 F   0  0  0  0  0  0  0  0  0  0  0  0
    4.4430    4.1520   16.6200 C   0  0  0  0  0  0  0  0  0  0  0  0
    3.9820    4.5660   15.7130 H   0  0  0  0  0  0  0  0  0  0  0  0
    4.3210    3.0620   16.5590 H   0  0  0  0  0  0  0  0  0  0  0  0
    5.8670    4.5020   16.6650 N   0  0  0  0  0  0  0  0  0  0  0  0
    6.1810    5.7680   15.9850 C   0  0  0  0  0  0  0  0  0  0  0  0
    6.5000    6.9210   16.9360 C   0  0  0  0  0  0  0  0  0  0  0  0
    7.6750    6.5830   17.8510 C   0  0  0  0  0  0  0  0  0  0  0  0
    7.7380    5.0950   18.1890 C   0  0  0  0  0  0  0  0  0  0  0  0
    6.3710    4.4290   18.0450 C   0  0  0  0  0  0  0  0  0  0  0  0
    7.0560    5.5910   15.3480 H   0  0  0  0  0  0  0  0  0  0  0  0
    5.3820    6.0830   15.3020 H   0  0  0  0  0  0  0  0  0  0  0  0
    6.7300    7.8280   16.3650 H   0  0  0  0  0  0  0  0  0  0  0  0
    5.6150    7.1490   17.5430 H   0  0  0  0  0  0  0  0  0  0  0  0
    7.5950    7.1760   18.7690 H   0  0  0  0  0  0  0  0  0  0  0  0
    8.6180    6.8790   17.3760 H   0  0  0  0  0  0  0  0  0  0  0  0
    8.1180    4.9610   19.2080 H   0  0  0  0  0  0  0  0  0  0  0  0
    8.4580    4.5980   17.5250 H   0  0  0  0  0  0  0  0  0  0  0  0
    5.6720    4.9060   18.7450 H   0  0  0  0  0  0  0  0  0  0  0  0
    6.4560    3.3760   18.3380 H   0  0  0  0  0  0  0  0  0  0  0  0
  1  2  1  0  0  0  0
  1 19  1  0  0  0  0
  2 11  1  0  0  0  0
  2 12  1  0  0  0  0
  3  2  1  0  0  0  0
  4  9  1  0  0  0  0
  4  3  2  0  0  0  0
  5  4  1  0  0  0  0
  6  5  2  0  0  0  0
  6  7  1  0  0  0  0
  7  8  2  0  0  0  0
  8  3  1  0  0  0  0
  8 46  1  0  0  0  0
  9  1  1  0  0  0  0
 10  9  2  0  0  0  0
 13  5  1  0  0  0  0
 14  7  1  0  0  0  0
 15 16  1  0  0  0  0
 16 21  1  0  0  0  0
 16 17  2  0  0  0  0
 17 22  1  0  0  0  0
 18 23  1  0  0  0  0
 18 17  1  0  0  0  0
 19 18  2  0  0  0  0
 20 19  1  0  0  0  0
 20 15  2  0  0  0  0
 24 20  1  0  0  0  0
 25 15  1  0  0  0  0
 25 26  1  0  0  0  0
 26 30  1  0  0  0  0
 26 29  1  0  0  0  0
 27 26  1  0  0  0  0
 28 27  1  0  0  0  0
 28 25  1  0  0  0  0
 31 28  1  0  0  0  0
 32 28  1  0  0  0  0
 33 25  1  0  0  0  0
 33 34  1  0  0  0  0
 35 33  1  0  0  0  0
 36 42  1  0  0  0  0
 37 36  1  0  0  0  0
 38 39  1  0  0  0  0
 38 37  2  0  0  0  0
 39 40  2  0  0  0  0
 40 36  1  0  0  0  0
 40 33  1  0  0  0  0
 41 37  1  0  0  0  0
 42 43  1  0  0  0  0
 42 44  1  0  0  0  0
 45 42  1  0  0  0  0
 46 49  1  0  0  0  0
 46 48  1  0  0  0  0
 47 46  1  0  0  0  0
 50 53  1  0  0  0  0
 50  6  1  0  0  0  0
 51 50  1  0  0  0  0
 52 50  1  0  0  0  0
 53 58  1  0  0  0  0
 54 53  1  0  0  0  0
 54 55  1  0  0  0  0
 55 62  1  0  0  0  0
 55 56  1  0  0  0  0
 56 57  1  0  0  0  0
 56 63  1  0  0  0  0
 57 65  1  0  0  0  0
 58 57  1  0  0  0  0
 58 68  1  0  0  0  0
 58 67  1  0  0  0  0
 59 54  1  0  0  0  0
 60 54  1  0  0  0  0
 61 55  1  0  0  0  0
 64 56  1  0  0  0  0
 66 57  1  0  0  0  0
M  END
>  <MODEL>
3

>  <REMARK>
 VINA RESULT:    -9.281      1.071      1.383
 INTER + INTRA:         -14.514
 INTER:                 -13.643
 INTRA:                  -0.870
 UNBOUND:                -1.163
  Name = 
  8 active torsions:
  status: ('A' for Active; 'I' for Inactive)
    1  A    between atoms: C_1  and  N_2
    2  A    between atoms: C_6  and  C_7
    3  A    between atoms: C_7  and  C_8
    4  A    between atoms: C_8  and  C_12
    5  A    between atoms: C_16  and  N_18
    6  A    between atoms: C_23  and  C_24
    7  A    between atoms: C_24  and  N_25
    8  A    between atoms: C_32  and  C_33
                            x       y       z     vdW  Elec       q    Type
                         _______ _______ _______ _____ _____    ______ ____

>  <TORSDO>
F 8

$$$$
=
 OpenBabel07192307433D

 68 73  0  0  0  0  0  0  0  0999 V2000
    1.2950    7.7570   20.5490 N   0  0  0  0  0  0  0  0  0  0  0  0
    1.2930    6.3760   21.0080 C   0  0  0  0  0  0  0  0  0  0  0  0
    2.1360    5.6650   20.0010 C   0  0  0  0  0  0  0  0  0  0  0  0
    2.5730    6.5690   19.0410 C   0  0  0  0  0  0  0  0  0  0  0  0
    3.3610    6.1950   17.9690 C   0  0  0  0  0  0  0  0  0  0  0  0
    3.7320    4.8450   17.8600 C   0  0  0  0  0  0  0  0  0  0  0  0
    3.2900    3.9220   18.8370 C   0  0  0  0  0  0  0  0  0  0  0  0
    2.4860    4.3210   19.9240 C   0  0  0  0  0  0  0  0  0  0  0  0
    2.0450    7.8990   19.3750 C   0  0  0  0  0  0  0  0  0  0  0  0
    2.2700    8.8720   18.6800 O   0  0  0  0  0  0  0  0  0  0  0  0
    0.2710    5.9850   20.9960 H   0  0  0  0  0  0  0  0  0  0  0  0
    1.7420    6.3150   22.0060 H   0  0  0  0  0  0  0  0  0  0  0  0
    3.6830    6.9310   17.2370 H   0  0  0  0  0  0  0  0  0  0  0  0
    3.5790    2.8740   18.7450 H   0  0  0  0  0  0  0  0  0  0  0  0
   -0.6960   10.9190   21.1380 C   0  0  0  0  0  0  0  0  0  0  0  0
   -0.8150   10.8490   22.5350 C   0  0  0  0  0  0  0  0  0  0  0  0
   -0.2640    9.7990   23.2660 C   0  0  0  0  0  0  0  0  0  0  0  0
    0.4340    8.7800   22.6180 C   0  0  0  0  0  0  0  0  0  0  0  0
    0.5830    8.7850   21.2310 C   0  0  0  0  0  0  0  0  0  0  0  0
    0.0040    9.8530   20.5170 C   0  0  0  0  0  0  0  0  0  0  0  0
   -1.3700   11.6200   23.0700 H   0  0  0  0  0  0  0  0  0  0  0  0
   -0.3850    9.7680   24.3460 H   0  0  0  0  0  0  0  0  0  0  0  0
    0.8420    7.9850   23.2350 H   0  0  0  0  0  0  0  0  0  0  0  0
    0.0880    9.8900   19.4340 H   0  0  0  0  0  0  0  0  0  0  0  0
   -1.3120   12.1380   20.2930 C   0  0  0  0  0  0  0  0  0  0  0  0
   -1.4370   11.9620   18.7500 C   0  0  0  0  0  0  0  0  0  0  0  0
   -2.7710   12.5450   18.7750 O   0  0  0  0  0  0  0  0  0  0  0  0
   -2.8650   12.1990   20.1860 C   0  0  0  0  0  0  0  0  0  0  0  0
   -1.4720   10.9300   18.3830 H   0  0  0  0  0  0  0  0  0  0  0  0
   -0.7560   12.5390   18.1220 H   0  0  0  0  0  0  0  0  0  0  0  0
   -3.3660   12.9800   20.7660 H   0  0  0  0  0  0  0  0  0  0  0  0
   -3.4040   11.2530   20.3170 H   0  0  0  0  0  0  0  0  0  0  0  0
   -0.7410   13.4970   20.7510 C   0  0  0  0  0  0  0  0  0  0  0  0
   -1.3980   14.3120   20.4240 H   0  0  0  0  0  0  0  0  0  0  0  0
   -0.7430   13.5530   21.8480 H   0  0  0  0  0  0  0  0  0  0  0  0
    0.9640   14.5310   19.1730 N   0  0  0  0  0  0  0  0  0  0  0  0
    2.3190   14.4780   19.0570 C   0  0  0  0  0  0  0  0  0  0  0  0
    2.8110   13.7320   20.0160 N   0  0  0  0  0  0  0  0  0  0  0  0
    1.7590   13.2880   20.7790 N   0  0  0  0  0  0  0  0  0  0  0  0
    0.6410   13.7570   20.2600 C   0  0  0  0  0  0  0  0  0  0  0  0
    2.8870   14.9800   18.2840 H   0  0  0  0  0  0  0  0  0  0  0  0
    0.0750   15.2660   18.3150 C   0  0  0  0  0  0  0  0  0  0  0  0
   -0.9510   15.0620   18.6300 H   0  0  0  0  0  0  0  0  0  0  0  0
    0.2330   14.9500   17.2820 H   0  0  0  0  0  0  0  0  0  0  0  0
    0.2820   16.3370   18.4020 H   0  0  0  0  0  0  0  0  0  0  0  0
    2.0150    3.3390   20.9620 C   0  0  0  0  0  0  0  0  0  0  0  0
    2.4820    2.0800   20.7300 F   0  0  0  0  0  0  0  0  0  0  0  0
    2.3940    3.6530   22.2300 F   0  0  0  0  0  0  0  0  0  0  0  0
    0.6580    3.2300   20.9890 F   0  0  0  0  0  0  0  0  0  0  0  0
    4.5680    4.3750   16.6840 C   0  0  0  0  0  0  0  0  0  0  0  0
    4.1520    4.8770   15.8000 H   0  0  0  0  0  0  0  0  0  0  0  0
    4.4330    3.2980   16.5200 H   0  0  0  0  0  0  0  0  0  0  0  0
    5.9940    4.6940   16.8200 N   0  0  0  0  0  0  0  0  0  0  0  0
    6.3750    5.9580   16.1710 C   0  0  0  0  0  0  0  0  0  0  0  0
    6.6600    7.0970   17.1490 C   0  0  0  0  0  0  0  0  0  0  0  0
    7.7690    6.7260   18.1330 C   0  0  0  0  0  0  0  0  0  0  0  0
    7.7790    5.2350   18.4610 C   0  0  0  0  0  0  0  0  0  0  0  0
    6.4100    4.6000   18.2270 C   0  0  0  0  0  0  0  0  0  0  0  0
    7.2850    5.7660   15.5880 H   0  0  0  0  0  0  0  0  0  0  0  0
    5.6270    6.2940   15.4420 H   0  0  0  0  0  0  0  0  0  0  0  0
    6.9440    8.0030   16.6020 H   0  0  0  0  0  0  0  0  0  0  0  0
    5.7440    7.3400   17.7030 H   0  0  0  0  0  0  0  0  0  0  0  0
    7.6450    7.3150   19.0480 H   0  0  0  0  0  0  0  0  0  0  0  0
    8.7460    7.0050   17.7180 H   0  0  0  0  0  0  0  0  0  0  0  0
    8.0920    5.0860   19.5010 H   0  0  0  0  0  0  0  0  0  0  0  0
    8.5280    4.7280   17.8380 H   0  0  0  0  0  0  0  0  0  0  0  0
    5.6790    5.0870   18.8870 H   0  0  0  0  0  0  0  0  0  0  0  0
    6.4540    3.5440   18.5170 H   0  0  0  0  0  0  0  0  0  0  0  0
  1  2  1  0  0  0  0
  1 19  1  0  0  0  0
  2 12  1  0  0  0  0
  3  2  1  0  0  0  0
  4  9  1  0  0  0  0
  4  3  2  0  0  0  0
  5  4  1  0  0  0  0
  6  5  2  0  0  0  0
  6  7  1  0  0  0  0
  7  8  2  0  0  0  0
  8  3  1  0  0  0  0
  8 46  1  0  0  0  0
  9  1  1  0  0  0  0
 10  9  2  0  0  0  0
 11  2  1  0  0  0  0
 13  5  1  0  0  0  0
 14  7  1  0  0  0  0
 15 16  1  0  0  0  0
 16 21  1  0  0  0  0
 16 17  2  0  0  0  0
 17 22  1  0  0  0  0
 18 23  1  0  0  0  0
 18 17  1  0  0  0  0
 19 18  2  0  0  0  0
 20 15  2  0  0  0  0
 20 19  1  0  0  0  0
 24 20  1  0  0  0  0
 25 33  1  0  0  0  0
 25 15  1  0  0  0  0
 26 27  1  0  0  0  0
 26 25  1  0  0  0  0
 27 28  1  0  0  0  0
 28 25  1  0  0  0  0
 28 32  1  0  0  0  0
 28 31  1  0  0  0  0
 29 26  1  0  0  0  0
 30 26  1  0  0  0  0
 33 35  1  0  0  0  0
 34 33  1  0  0  0  0
 36 40  1  0  0  0  0
 37 36  1  0  0  0  0
 37 38  2  0  0  0  0
 38 39  1  0  0  0  0
 40 33  1  0  0  0  0
 40 39  2  0  0  0  0
 41 37  1  0  0  0  0
 42 45  1  0  0  0  0
 42 43  1  0  0  0  0
 42 36  1  0  0  0  0
 44 42  1  0  0  0  0
 46 49  1  0  0  0  0
 46 48  1  0  0  0  0
 47 46  1  0  0  0  0
 50 53  1  0  0  0  0
 50  6  1  0  0  0  0
 51 50  1  0  0  0  0
 52 50  1  0  0  0  0
 53 58  1  0  0  0  0
 54 53  1  0  0  0  0
 54 55  1  0  0  0  0
 55 62  1  0  0  0  0
 55 56  1  0  0  0  0
 56 57  1  0  0  0  0
 56 63  1  0  0  0  0
 57 65  1  0  0  0  0
 58 57  1  0  0  0  0
 58 68  1  0  0  0  0
 58 67  1  0  0  0  0
 59 54  1  0  0  0  0
 60 54  1  0  0  0  0
 61 55  1  0  0  0  0
 64 56  1  0  0  0  0
 66 57  1  0  0  0  0
M  END
>  <MODEL>
4

>  <REMARK>
 VINA RESULT:    -9.022      1.952      2.705
 INTER + INTRA:         -14.141
 INTER:                 -12.904
 INTRA:                  -1.237
 UNBOUND:                -1.163
  Name = 
  8 active torsions:
  status: ('A' for Active; 'I' for Inactive)
    1  A    between atoms: C_1  and  N_2
    2  A    between atoms: C_6  and  C_7
    3  A    between atoms: C_7  and  C_8
    4  A    between atoms: C_8  and  C_12
    5  A    between atoms: C_16  and  N_18
    6  A    between atoms: C_23  and  C_24
    7  A    between atoms: C_24  and  N_25
    8  A    between atoms: C_32  and  C_33
                            x       y       z     vdW  Elec       q    Type
                         _______ _______ _______ _____ _____    ______ ____

>  <TORSDO>
F 8

$$$$
=
 OpenBabel07192307433D

 68 73  0  0  0  0  0  0  0  0999 V2000
    1.2960    7.8820   20.4160 N   0  0  0  0  0  0  0  0  0  0  0  0
    1.2950    6.5240   20.9400 C   0  0  0  0  0  0  0  0  0  0  0  0
    2.1280    5.7650   19.9600 C   0  0  0  0  0  0  0  0  0  0  0  0
    2.5590    6.6210   18.9550 C   0  0  0  0  0  0  0  0  0  0  0  0
    3.3380    6.1950   17.8960 C   0  0  0  0  0  0  0  0  0  0  0  0
    3.7050    4.8400   17.8480 C   0  0  0  0  0  0  0  0  0  0  0  0
    3.2690    3.9650   18.8710 C   0  0  0  0  0  0  0  0  0  0  0  0
    2.4750    4.4170   19.9440 C   0  0  0  0  0  0  0  0  0  0  0  0
    2.0370    7.9670   19.2300 C   0  0  0  0  0  0  0  0  0  0  0  0
    2.2580    8.9050   18.4880 O   0  0  0  0  0  0  0  0  0  0  0  0
    0.2710    6.1350   20.9540 H   0  0  0  0  0  0  0  0  0  0  0  0
    1.7520    6.5090   21.9350 H   0  0  0  0  0  0  0  0  0  0  0  0
    3.6550    6.8940   17.1270 H   0  0  0  0  0  0  0  0  0  0  0  0
    3.5560    2.9130   18.8260 H   0  0  0  0  0  0  0  0  0  0  0  0
   -0.4570   11.1960   20.9150 C   0  0  0  0  0  0  0  0  0  0  0  0
   -0.7820   11.0720   22.2750 C   0  0  0  0  0  0  0  0  0  0  0  0
   -0.4430    9.9380   23.0100 C   0  0  0  0  0  0  0  0  0  0  0  0
    0.2440    8.8860   22.4040 C   0  0  0  0  0  0  0  0  0  0  0  0
    0.5910    8.9420   21.0530 C   0  0  0  0  0  0  0  0  0  0  0  0
    0.2230   10.0970   20.3340 C   0  0  0  0  0  0  0  0  0  0  0  0
   -1.3350   11.8680   22.7740 H   0  0  0  0  0  0  0  0  0  0  0  0
   -0.7220    9.8680   24.0590 H   0  0  0  0  0  0  0  0  0  0  0  0
    0.4820    8.0250   23.0210 H   0  0  0  0  0  0  0  0  0  0  0  0
    0.4660   10.1770   19.2780 H   0  0  0  0  0  0  0  0  0  0  0  0
   -0.8280   12.5100   20.0700 C   0  0  0  0  0  0  0  0  0  0  0  0
    0.3070   13.1880   19.2450 C   0  0  0  0  0  0  0  0  0  0  0  0
   -0.5930   13.3550   18.1130 O   0  0  0  0  0  0  0  0  0  0  0  0
   -1.4200   12.2820   18.6470 C   0  0  0  0  0  0  0  0  0  0  0  0
    1.1540   12.5470   18.9740 H   0  0  0  0  0  0  0  0  0  0  0  0
    0.6870   14.1450   19.6040 H   0  0  0  0  0  0  0  0  0  0  0  0
   -2.4870   12.4860   18.5220 H   0  0  0  0  0  0  0  0  0  0  0  0
   -1.1760   11.3290   18.1620 H   0  0  0  0  0  0  0  0  0  0  0  0
   -1.7130   13.4810   20.8810 C   0  0  0  0  0  0  0  0  0  0  0  0
   -1.3330   13.5730   21.9060 H   0  0  0  0  0  0  0  0  0  0  0  0
   -1.6430   14.4920   20.4590 H   0  0  0  0  0  0  0  0  0  0  0  0
   -3.9150   13.0100   22.0640 N   0  0  0  0  0  0  0  0  0  0  0  0
   -5.1430   12.5750   21.6690 C   0  0  0  0  0  0  0  0  0  0  0  0
   -5.1460   12.3980   20.3700 N   0  0  0  0  0  0  0  0  0  0  0  0
   -3.8970   12.7240   19.9030 N   0  0  0  0  0  0  0  0  0  0  0  0
   -3.1480   13.0790   20.9280 C   0  0  0  0  0  0  0  0  0  0  0  0
   -5.9760   12.4060   22.3380 H   0  0  0  0  0  0  0  0  0  0  0  0
   -3.5310   13.3320   23.4120 C   0  0  0  0  0  0  0  0  0  0  0  0
   -4.2780   12.9130   24.0900 H   0  0  0  0  0  0  0  0  0  0  0  0
   -3.4780   14.4170   23.5190 H   0  0  0  0  0  0  0  0  0  0  0  0
   -2.5500   12.8990   23.6280 H   0  0  0  0  0  0  0  0  0  0  0  0
    2.0100    3.4860   21.0310 C   0  0  0  0  0  0  0  0  0  0  0  0
    2.3910    3.9080   22.2690 F   0  0  0  0  0  0  0  0  0  0  0  0
    0.6600    3.3330   21.0850 F   0  0  0  0  0  0  0  0  0  0  0  0
    2.5280    2.2340   20.8930 F   0  0  0  0  0  0  0  0  0  0  0  0
    4.5300    4.3130   16.6880 C   0  0  0  0  0  0  0  0  0  0  0  0
    4.0940    4.7560   15.7830 H   0  0  0  0  0  0  0  0  0  0  0  0
    4.4090    3.2260   16.5900 H   0  0  0  0  0  0  0  0  0  0  0  0
    5.9530    4.6590   16.7830 N   0  0  0  0  0  0  0  0  0  0  0  0
    6.2900    5.9330   16.1280 C   0  0  0  0  0  0  0  0  0  0  0  0
    6.5820    7.0740   17.1020 C   0  0  0  0  0  0  0  0  0  0  0  0
    7.7270    6.7220   18.0500 C   0  0  0  0  0  0  0  0  0  0  0  0
    7.7760    5.2300   18.3720 C   0  0  0  0  0  0  0  0  0  0  0  0
    6.4130    4.5690   18.1770 C   0  0  0  0  0  0  0  0  0  0  0  0
    7.1850    5.7610   15.5170 H   0  0  0  0  0  0  0  0  0  0  0  0
    5.5140    6.2570   15.4240 H   0  0  0  0  0  0  0  0  0  0  0  0
    6.8320    7.9870   16.5500 H   0  0  0  0  0  0  0  0  0  0  0  0
    5.6790    7.2970   17.6840 H   0  0  0  0  0  0  0  0  0  0  0  0
    7.6190    7.3050   18.9720 H   0  0  0  0  0  0  0  0  0  0  0  0
    8.6850    7.0210   17.6080 H   0  0  0  0  0  0  0  0  0  0  0  0
    8.1230    5.0830   19.4010 H   0  0  0  0  0  0  0  0  0  0  0  0
    8.5150    4.7390   17.7250 H   0  0  0  0  0  0  0  0  0  0  0  0
    5.6920    5.0390   18.8600 H   0  0  0  0  0  0  0  0  0  0  0  0
    6.4870    3.5130   18.4610 H   0  0  0  0  0  0  0  0  0  0  0  0
  1  2  1  0  0  0  0
  1 19  1  0  0  0  0
  2 11  1  0  0  0  0
  2 12  1  0  0  0  0
  3  2  1  0  0  0  0
  4  9  1  0  0  0  0
  4  3  2  0  0  0  0
  5  4  1  0  0  0  0
  6  5  2  0  0  0  0
  6  7  1  0  0  0  0
  7  8  2  0  0  0  0
  8  3  1  0  0  0  0
  8 46  1  0  0  0  0
  9  1  1  0  0  0  0
 10  9  2  0  0  0  0
 13  5  1  0  0  0  0
 14  7  1  0  0  0  0
 15 16  1  0  0  0  0
 16 21  1  0  0  0  0
 16 17  2  0  0  0  0
 17 22  1  0  0  0  0
 18 17  1  0  0  0  0
 18 23  1  0  0  0  0
 19 18  2  0  0  0  0
 20 15  2  0  0  0  0
 20 19  1  0  0  0  0
 24 20  1  0  0  0  0
 25 33  1  0  0  0  0
 25 15  1  0  0  0  0
 26 30  1  0  0  0  0
 26 25  1  0  0  0  0
 27 28  1  0  0  0  0
 27 26  1  0  0  0  0
 28 25  1  0  0  0  0
 29 26  1  0  0  0  0
 31 28  1  0  0  0  0
 32 28  1  0  0  0  0
 33 40  1  0  0  0  0
 33 34  1  0  0  0  0
 35 33  1  0  0  0  0
 36 42  1  0  0  0  0
 37 36  1  0  0  0  0
 37 41  1  0  0  0  0
 38 37  2  0  0  0  0
 39 38  1  0  0  0  0
 39 40  2  0  0  0  0
 40 36  1  0  0  0  0
 42 44  1  0  0  0  0
 42 45  1  0  0  0  0
 42 43  1  0  0  0  0
 46 48  1  0  0  0  0
 46 47  1  0  0  0  0
 49 46  1  0  0  0  0
 50 53  1  0  0  0  0
 50  6  1  0  0  0  0
 51 50  1  0  0  0  0
 52 50  1  0  0  0  0
 53 58  1  0  0  0  0
 54 53  1  0  0  0  0
 54 55  1  0  0  0  0
 55 62  1  0  0  0  0
 55 56  1  0  0  0  0
 56 57  1  0  0  0  0
 56 63  1  0  0  0  0
 57 65  1  0  0  0  0
 58 57  1  0  0  0  0
 58 68  1  0  0  0  0
 58 67  1  0  0  0  0
 59 54  1  0  0  0  0
 60 54  1  0  0  0  0
 61 55  1  0  0  0  0
 64 56  1  0  0  0  0
 66 57  1  0  0  0  0
M  END
>  <MODEL>
5

>  <REMARK>
 VINA RESULT:    -9.016      1.524      2.239
 INTER + INTRA:         -14.133
 INTER:                 -13.839
 INTRA:                  -0.294
 UNBOUND:                -1.163
  Name = 
  8 active torsions:
  status: ('A' for Active; 'I' for Inactive)
    1  A    between atoms: C_1  and  N_2
    2  A    between atoms: C_6  and  C_7
    3  A    between atoms: C_7  and  C_8
    4  A    between atoms: C_8  and  C_12
    5  A    between atoms: C_16  and  N_18
    6  A    between atoms: C_23  and  C_24
    7  A    between atoms: C_24  and  N_25
    8  A    between atoms: C_32  and  C_33
                            x       y       z     vdW  Elec       q    Type
                         _______ _______ _______ _____ _____    ______ ____

>  <TORSDO>
F 8

$$$$
=
 OpenBabel07192307433D

 68 73  0  0  0  0  0  0  0  0999 V2000
    2.1400    7.4630   19.6890 N   0  0  0  0  0  0  0  0  0  0  0  0
    1.4830    7.8600   20.9260 C   0  0  0  0  0  0  0  0  0  0  0  0
    0.7310    9.0950   20.5490 C   0  0  0  0  0  0  0  0  0  0  0  0
    0.9520    9.3810   19.2080 C   0  0  0  0  0  0  0  0  0  0  0  0
    0.3970   10.4800   18.5800 C   0  0  0  0  0  0  0  0  0  0  0  0
   -0.4260   11.3300   19.3370 C   0  0  0  0  0  0  0  0  0  0  0  0
   -0.6540   11.0390   20.7030 C   0  0  0  0  0  0  0  0  0  0  0  0
   -0.0790    9.9150   21.3280 C   0  0  0  0  0  0  0  0  0  0  0  0
    1.8450    8.3560   18.6510 C   0  0  0  0  0  0  0  0  0  0  0  0
    2.2100    8.3860   17.4900 O   0  0  0  0  0  0  0  0  0  0  0  0
    2.2360    8.0870   21.6870 H   0  0  0  0  0  0  0  0  0  0  0  0
    0.7970    7.0700   21.2520 H   0  0  0  0  0  0  0  0  0  0  0  0
    0.5940   10.6730   17.5290 H   0  0  0  0  0  0  0  0  0  0  0  0
   -1.2920   11.7050   21.2870 H   0  0  0  0  0  0  0  0  0  0  0  0
    5.1940    5.3360   19.0190 C   0  0  0  0  0  0  0  0  0  0  0  0
    4.6870    4.0890   19.4180 C   0  0  0  0  0  0  0  0  0  0  0  0
    3.3860    3.9450   19.8960 C   0  0  0  0  0  0  0  0  0  0  0  0
    2.5420    5.0510   19.9840 C   0  0  0  0  0  0  0  0  0  0  0  0
    2.9850    6.3210   19.6100 C   0  0  0  0  0  0  0  0  0  0  0  0
    4.3100    6.4370   19.1440 C   0  0  0  0  0  0  0  0  0  0  0  0
    5.3270    3.2070   19.3790 H   0  0  0  0  0  0  0  0  0  0  0  0
    3.0290    2.9670   20.2090 H   0  0  0  0  0  0  0  0  0  0  0  0
    1.5400    4.8840   20.3640 H   0  0  0  0  0  0  0  0  0  0  0  0
    4.6980    7.4090   18.8520 H   0  0  0  0  0  0  0  0  0  0  0  0
    6.6860    5.5020   18.4500 C   0  0  0  0  0  0  0  0  0  0  0  0
    7.0880    6.8880   17.8600 C   0  0  0  0  0  0  0  0  0  0  0  0
    8.3690    6.8280   18.5470 O   0  0  0  0  0  0  0  0  0  0  0  0
    7.7920    5.8740   19.4830 C   0  0  0  0  0  0  0  0  0  0  0  0
    6.5020    7.7470   18.2060 H   0  0  0  0  0  0  0  0  0  0  0  0
    7.2120    6.9560   16.7780 H   0  0  0  0  0  0  0  0  0  0  0  0
    8.4980    5.0830   19.7500 H   0  0  0  0  0  0  0  0  0  0  0  0
    7.4590    6.3820   20.3960 H   0  0  0  0  0  0  0  0  0  0  0  0
    7.1150    4.2840   17.6040 C   0  0  0  0  0  0  0  0  0  0  0  0
    8.1960    4.1210   17.6970 H   0  0  0  0  0  0  0  0  0  0  0  0
    6.6540    3.3710   18.0040 H   0  0  0  0  0  0  0  0  0  0  0  0
    5.5540    4.0640   15.6090 N   0  0  0  0  0  0  0  0  0  0  0  0
    5.6650    4.3030   14.2730 C   0  0  0  0  0  0  0  0  0  0  0  0
    6.8590    4.7780   14.0120 N   0  0  0  0  0  0  0  0  0  0  0  0
    7.5450    4.8550   15.1990 N   0  0  0  0  0  0  0  0  0  0  0  0
    6.7630    4.4080   16.1620 C   0  0  0  0  0  0  0  0  0  0  0  0
    4.8780    4.1220   13.5520 H   0  0  0  0  0  0  0  0  0  0  0  0
    4.3870    3.5570   16.2780 C   0  0  0  0  0  0  0  0  0  0  0  0
    4.6540    3.3400   17.3140 H   0  0  0  0  0  0  0  0  0  0  0  0
    4.0480    2.6530   15.7690 H   0  0  0  0  0  0  0  0  0  0  0  0
    3.5920    4.3080   16.2490 H   0  0  0  0  0  0  0  0  0  0  0  0
   -0.3210    9.6060   22.7810 C   0  0  0  0  0  0  0  0  0  0  0  0
   -1.0430    8.4640   22.9530 F   0  0  0  0  0  0  0  0  0  0  0  0
    0.8180    9.4450   23.5070 F   0  0  0  0  0  0  0  0  0  0  0  0
   -1.0310   10.5880   23.4050 F   0  0  0  0  0  0  0  0  0  0  0  0
   -1.0320   12.5690   18.7050 C   0  0  0  0  0  0  0  0  0  0  0  0
   -0.3130   12.9020   17.9450 H   0  0  0  0  0  0  0  0  0  0  0  0
   -1.1040   13.3820   19.4400 H   0  0  0  0  0  0  0  0  0  0  0  0
   -2.3410   12.3240   18.0880 N   0  0  0  0  0  0  0  0  0  0  0  0
   -2.3100   11.2920   17.0400 C   0  0  0  0  0  0  0  0  0  0  0  0
   -2.9480    9.9670   17.4550 C   0  0  0  0  0  0  0  0  0  0  0  0
   -4.4040   10.1550   17.8790 C   0  0  0  0  0  0  0  0  0  0  0  0
   -4.6470   11.5140   18.5320 C   0  0  0  0  0  0  0  0  0  0  0  0
   -3.3620   12.0910   19.1200 C   0  0  0  0  0  0  0  0  0  0  0  0
   -2.8590   11.6860   16.1750 H   0  0  0  0  0  0  0  0  0  0  0  0
   -1.2940   11.0980   16.6770 H   0  0  0  0  0  0  0  0  0  0  0  0
   -2.8980    9.2480   16.6300 H   0  0  0  0  0  0  0  0  0  0  0  0
   -2.3780    9.5310   18.2850 H   0  0  0  0  0  0  0  0  0  0  0  0
   -4.6820    9.3490   18.5680 H   0  0  0  0  0  0  0  0  0  0  0  0
   -5.0640   10.0560   17.0090 H   0  0  0  0  0  0  0  0  0  0  0  0
   -5.4110   11.4200   19.3120 H   0  0  0  0  0  0  0  0  0  0  0  0
   -5.0530   12.2110   17.7870 H   0  0  0  0  0  0  0  0  0  0  0  0
   -2.9900   11.4070   19.8940 H   0  0  0  0  0  0  0  0  0  0  0  0
   -3.5930   13.0430   19.6140 H   0  0  0  0  0  0  0  0  0  0  0  0
  1  2  1  0  0  0  0
  2 12  1  0  0  0  0
  2 11  1  0  0  0  0
  3  2  1  0  0  0  0
  3  8  1  0  0  0  0
  4  3  2  0  0  0  0
  5  4  1  0  0  0  0
  5  6  2  0  0  0  0
  6  7  1  0  0  0  0
  7 14  1  0  0  0  0
  7  8  2  0  0  0  0
  8 46  1  0  0  0  0
  9  4  1  0  0  0  0
  9  1  1  0  0  0  0
 10  9  2  0  0  0  0
 13  5  1  0  0  0  0
 15 20  2  0  0  0  0
 15 16  1  0  0  0  0
 16 17  2  0  0  0  0
 17 18  1  0  0  0  0
 17 22  1  0  0  0  0
 18 23  1  0  0  0  0
 19  1  1  0  0  0  0
 19 18  2  0  0  0  0
 20 19  1  0  0  0  0
 21 16  1  0  0  0  0
 24 20  1  0  0  0  0
 25 15  1  0  0  0  0
 25 28  1  0  0  0  0
 26 29  1  0  0  0  0
 26 25  1  0  0  0  0
 26 27  1  0  0  0  0
 27 28  1  0  0  0  0
 28 31  1  0  0  0  0
 28 32  1  0  0  0  0
 30 26  1  0  0  0  0
 33 34  1  0  0  0  0
 33 35  1  0  0  0  0
 33 25  1  0  0  0  0
 36 40  1  0  0  0  0
 36 42  1  0  0  0  0
 37 36  1  0  0  0  0
 38 37  2  0  0  0  0
 38 39  1  0  0  0  0
 39 40  2  0  0  0  0
 40 33  1  0  0  0  0
 41 37  1  0  0  0  0
 42 43  1  0  0  0  0
 44 42  1  0  0  0  0
 45 42  1  0  0  0  0
 46 47  1  0  0  0  0
 46 49  1  0  0  0  0
 46 48  1  0  0  0  0
 50  6  1  0  0  0  0
 50 52  1  0  0  0  0
 51 50  1  0  0  0  0
 53 50  1  0  0  0  0
 53 58  1  0  0  0  0
 54 55  1  0  0  0  0
 54 53  1  0  0  0  0
 55 56  1  0  0  0  0
 55 62  1  0  0  0  0
 56 57  1  0  0  0  0
 56 63  1  0  0  0  0
 57 58  1  0  0  0  0
 57 65  1  0  0  0  0
 58 68  1  0  0  0  0
 58 67  1  0  0  0  0
 59 54  1  0  0  0  0
 60 54  1  0  0  0  0
 61 55  1  0  0  0  0
 64 56  1  0  0  0  0
 66 57  1  0  0  0  0
M  END
>  <MODEL>
6

>  <REMARK>
 VINA RESULT:    -8.894      2.463      9.074
 INTER + INTRA:         -13.956
 INTER:                 -13.091
 INTRA:                  -0.866
 UNBOUND:                -1.163
  Name = 
  8 active torsions:
  status: ('A' for Active; 'I' for Inactive)
    1  A    between atoms: C_1  and  N_2
    2  A    between atoms: C_6  and  C_7
    3  A    between atoms: C_7  and  C_8
    4  A    between atoms: C_8  and  C_12
    5  A    between atoms: C_16  and  N_18
    6  A    between atoms: C_23  and  C_24
    7  A    between atoms: C_24  and  N_25
    8  A    between atoms: C_32  and  C_33
                            x       y       z     vdW  Elec       q    Type
                         _______ _______ _______ _____ _____    ______ ____

>  <TORSDO>
F 8

$$$$
=
 OpenBabel07192307433D

 68 73  0  0  0  0  0  0  0  0999 V2000
    2.2570    7.2890   19.4190 N   0  0  0  0  0  0  0  0  0  0  0  0
    1.6230    7.6460   20.6800 C   0  0  0  0  0  0  0  0  0  0  0  0
    0.9290    8.9330   20.3770 C   0  0  0  0  0  0  0  0  0  0  0  0
    1.1590    9.2840   19.0530 C   0  0  0  0  0  0  0  0  0  0  0  0
    0.6540   10.4410   18.4910 C   0  0  0  0  0  0  0  0  0  0  0  0
   -0.1250   11.2850   19.2990 C   0  0  0  0  0  0  0  0  0  0  0  0
   -0.3630   10.9290   20.6480 C   0  0  0  0  0  0  0  0  0  0  0  0
    0.1600    9.7450   21.2060 C   0  0  0  0  0  0  0  0  0  0  0  0
    2.0020    8.2520   18.4340 C   0  0  0  0  0  0  0  0  0  0  0  0
    2.3640    8.3290   17.2750 O   0  0  0  0  0  0  0  0  0  0  0  0
    2.3880    7.7940   21.4480 H   0  0  0  0  0  0  0  0  0  0  0  0
    0.9020    6.8710   20.9660 H   0  0  0  0  0  0  0  0  0  0  0  0
    0.8570   10.6840   17.4510 H   0  0  0  0  0  0  0  0  0  0  0  0
   -0.9670   11.5890   21.2720 H   0  0  0  0  0  0  0  0  0  0  0  0
    4.7170    4.8140   17.9600 C   0  0  0  0  0  0  0  0  0  0  0  0
    4.6150    3.8030   18.9290 C   0  0  0  0  0  0  0  0  0  0  0  0
    3.7690    3.9250   20.0290 C   0  0  0  0  0  0  0  0  0  0  0  0
    2.9890    5.0690   20.1950 C   0  0  0  0  0  0  0  0  0  0  0  0
    3.0480    6.1140   19.2720 C   0  0  0  0  0  0  0  0  0  0  0  0
    3.9220    5.9670   18.1760 C   0  0  0  0  0  0  0  0  0  0  0  0
    5.2250    2.9040   18.8390 H   0  0  0  0  0  0  0  0  0  0  0  0
    3.7240    3.1280   20.7690 H   0  0  0  0  0  0  0  0  0  0  0  0
    2.3490    5.1130   21.0700 H   0  0  0  0  0  0  0  0  0  0  0  0
    4.0050    6.7620   17.4400 H   0  0  0  0  0  0  0  0  0  0  0  0
    5.6740    4.6690   16.6790 C   0  0  0  0  0  0  0  0  0  0  0  0
    5.3370    3.5550   15.6430 C   0  0  0  0  0  0  0  0  0  0  0  0
    5.5860    4.4770   14.5450 O   0  0  0  0  0  0  0  0  0  0  0  0
    5.3550    5.5850   15.4600 C   0  0  0  0  0  0  0  0  0  0  0  0
    4.2970    3.2080   15.6290 H   0  0  0  0  0  0  0  0  0  0  0  0
    6.0000    2.6890   15.6020 H   0  0  0  0  0  0  0  0  0  0  0  0
    6.0430    6.4160   15.2790 H   0  0  0  0  0  0  0  0  0  0  0  0
    4.3240    5.9480   15.3760 H   0  0  0  0  0  0  0  0  0  0  0  0
    7.1650    4.7710   17.0650 C   0  0  0  0  0  0  0  0  0  0  0  0
    7.4040    4.0420   17.8490 H   0  0  0  0  0  0  0  0  0  0  0  0
    7.7930    4.4850   16.2100 H   0  0  0  0  0  0  0  0  0  0  0  0
    7.9820    6.4480   18.7930 N   0  0  0  0  0  0  0  0  0  0  0  0
    8.2210    7.7890   18.7910 C   0  0  0  0  0  0  0  0  0  0  0  0
    7.9870    8.2720   17.5950 N   0  0  0  0  0  0  0  0  0  0  0  0
    7.5870    7.2300   16.7960 N   0  0  0  0  0  0  0  0  0  0  0  0
    7.5690    6.1300   17.5230 C   0  0  0  0  0  0  0  0  0  0  0  0
    8.5540    8.3520   19.6530 H   0  0  0  0  0  0  0  0  0  0  0  0
    8.1460    5.5670   19.9170 C   0  0  0  0  0  0  0  0  0  0  0  0
    9.1820    5.2190   19.9300 H   0  0  0  0  0  0  0  0  0  0  0  0
    7.4570    4.7260   19.8150 H   0  0  0  0  0  0  0  0  0  0  0  0
    7.9250    6.1060   20.8420 H   0  0  0  0  0  0  0  0  0  0  0  0
   -0.0920    9.3680   22.6400 C   0  0  0  0  0  0  0  0  0  0  0  0
   -0.7720    8.1930   22.7520 F   0  0  0  0  0  0  0  0  0  0  0  0
    1.0420    9.2180   23.3780 F   0  0  0  0  0  0  0  0  0  0  0  0
   -0.8470   10.2950   23.2920 F   0  0  0  0  0  0  0  0  0  0  0  0
   -0.6750   12.5840   18.7410 C   0  0  0  0  0  0  0  0  0  0  0  0
    0.0430   12.9100   17.9760 H   0  0  0  0  0  0  0  0  0  0  0  0
   -0.6800   13.3650   19.5130 H   0  0  0  0  0  0  0  0  0  0  0  0
   -2.0110   12.4440   18.1510 N   0  0  0  0  0  0  0  0  0  0  0  0
   -2.0630   11.4770   17.0430 C   0  0  0  0  0  0  0  0  0  0  0  0
   -2.7570   10.1630   17.3990 C   0  0  0  0  0  0  0  0  0  0  0  0
   -4.1890   10.3970   17.8780 C   0  0  0  0  0  0  0  0  0  0  0  0
   -4.3430   11.7250   18.6170 C   0  0  0  0  0  0  0  0  0  0  0  0
   -3.0130   12.2000   19.1990 C   0  0  0  0  0  0  0  0  0  0  0  0
   -2.6150   11.9490   16.2210 H   0  0  0  0  0  0  0  0  0  0  0  0
   -1.0680   11.2540   16.6380 H   0  0  0  0  0  0  0  0  0  0  0  0
   -2.7670    9.4940   16.5310 H   0  0  0  0  0  0  0  0  0  0  0  0
   -2.1870    9.6490   18.1830 H   0  0  0  0  0  0  0  0  0  0  0  0
   -4.4890    9.5660   18.5260 H   0  0  0  0  0  0  0  0  0  0  0  0
   -4.8770   10.3850   17.0240 H   0  0  0  0  0  0  0  0  0  0  0  0
   -5.0890   11.6220   19.4140 H   0  0  0  0  0  0  0  0  0  0  0  0
   -4.7330   12.4850   17.9280 H   0  0  0  0  0  0  0  0  0  0  0  0
   -2.6560   11.4520   19.9190 H   0  0  0  0  0  0  0  0  0  0  0  0
   -3.1810   13.1300   19.7550 H   0  0  0  0  0  0  0  0  0  0  0  0
  1  2  1  0  0  0  0
  2 12  1  0  0  0  0
  2 11  1  0  0  0  0
  3  2  1  0  0  0  0
  3  8  1  0  0  0  0
  4  3  2  0  0  0  0
  5  4  1  0  0  0  0
  5  6  2  0  0  0  0
  6  7  1  0  0  0  0
  7  8  2  0  0  0  0
  7 14  1  0  0  0  0
  8 46  1  0  0  0  0
  9  4  1  0  0  0  0
  9  1  1  0  0  0  0
 10  9  2  0  0  0  0
 13  5  1  0  0  0  0
 15 20  2  0  0  0  0
 15 16  1  0  0  0  0
 16 17  2  0  0  0  0
 17 18  1  0  0  0  0
 17 22  1  0  0  0  0
 18 23  1  0  0  0  0
 19  1  1  0  0  0  0
 19 18  2  0  0  0  0
 20 19  1  0  0  0  0
 21 16  1  0  0  0  0
 24 20  1  0  0  0  0
 25 33  1  0  0  0  0
 25 15  1  0  0  0  0
 26 25  1  0  0  0  0
 27 28  1  0  0  0  0
 27 26  1  0  0  0  0
 28 25  1  0  0  0  0
 29 26  1  0  0  0  0
 30 26  1  0  0  0  0
 31 28  1  0  0  0  0
 32 28  1  0  0  0  0
 33 40  1  0  0  0  0
 33 34  1  0  0  0  0
 35 33  1  0  0  0  0
 36 42  1  0  0  0  0
 37 36  1  0  0  0  0
 37 41  1  0  0  0  0
 38 37  2  0  0  0  0
 39 40  2  0  0  0  0
 39 38  1  0  0  0  0
 40 36  1  0  0  0  0
 42 43  1  0  0  0  0
 42 45  1  0  0  0  0
 44 42  1  0  0  0  0
 46 47  1  0  0  0  0
 46 49  1  0  0  0  0
 46 48  1  0  0  0  0
 50  6  1  0  0  0  0
 50 52  1  0  0  0  0
 51 50  1  0  0  0  0
 53 50  1  0  0  0  0
 53 58  1  0  0  0  0
 54 55  1  0  0  0  0
 54 53  1  0  0  0  0
 55 56  1  0  0  0  0
 55 62  1  0  0  0  0
 56 63  1  0  0  0  0
 56 57  1  0  0  0  0
 57 58  1  0  0  0  0
 57 65  1  0  0  0  0
 58 68  1  0  0  0  0
 58 67  1  0  0  0  0
 59 54  1  0  0  0  0
 60 54  1  0  0  0  0
 61 55  1  0  0  0  0
 64 56  1  0  0  0  0
 66 57  1  0  0  0  0
M  END
>  <MODEL>
7

>  <REMARK>
 VINA RESULT:    -8.668      2.498      9.184
 INTER + INTRA:         -13.631
 INTER:                 -12.793
 INTRA:                  -0.838
 UNBOUND:                -1.163
  Name = 
  8 active torsions:
  status: ('A' for Active; 'I' for Inactive)
    1  A    between atoms: C_1  and  N_2
    2  A    between atoms: C_6  and  C_7
    3  A    between atoms: C_7  and  C_8
    4  A    between atoms: C_8  and  C_12
    5  A    between atoms: C_16  and  N_18
    6  A    between atoms: C_23  and  C_24
    7  A    between atoms: C_24  and  N_25
    8  A    between atoms: C_32  and  C_33
                            x       y       z     vdW  Elec       q    Type
                         _______ _______ _______ _____ _____    ______ ____

>  <TORSDO>
F 8

$$$$
=
 OpenBabel07192307433D

 68 73  0  0  0  0  0  0  0  0999 V2000
    2.1130    7.5190   19.6070 N   0  0  0  0  0  0  0  0  0  0  0  0
    1.4290    7.9300   20.8250 C   0  0  0  0  0  0  0  0  0  0  0  0
    0.6880    9.1610   20.4180 C   0  0  0  0  0  0  0  0  0  0  0  0
    0.9400    9.4340   19.0790 C   0  0  0  0  0  0  0  0  0  0  0  0
    0.4000   10.5270   18.4280 C   0  0  0  0  0  0  0  0  0  0  0  0
   -0.4380   11.3850   19.1570 C   0  0  0  0  0  0  0  0  0  0  0  0
   -0.6980   11.1090   20.5200 C   0  0  0  0  0  0  0  0  0  0  0  0
   -0.1390    9.9910   21.1700 C   0  0  0  0  0  0  0  0  0  0  0  0
    1.8440    8.4020   18.5530 C   0  0  0  0  0  0  0  0  0  0  0  0
    2.2350    8.4180   17.4010 O   0  0  0  0  0  0  0  0  0  0  0  0
    2.1650    8.1640   21.6000 H   0  0  0  0  0  0  0  0  0  0  0  0
    0.7350    7.1440   21.1440 H   0  0  0  0  0  0  0  0  0  0  0  0
    0.6220   10.7090   17.3790 H   0  0  0  0  0  0  0  0  0  0  0  0
   -1.3480   11.7820   21.0820 H   0  0  0  0  0  0  0  0  0  0  0  0
    5.1710    5.3760   19.0070 C   0  0  0  0  0  0  0  0  0  0  0  0
    4.6600    4.1380   19.4300 C   0  0  0  0  0  0  0  0  0  0  0  0
    3.3560    4.0060   19.9010 C   0  0  0  0  0  0  0  0  0  0  0  0
    2.5120    5.1150   19.9590 C   0  0  0  0  0  0  0  0  0  0  0  0
    2.9590    6.3750   19.5600 C   0  0  0  0  0  0  0  0  0  0  0  0
    4.2870    6.4800   19.1010 C   0  0  0  0  0  0  0  0  0  0  0  0
    5.3000    3.2550   19.4150 H   0  0  0  0  0  0  0  0  0  0  0  0
    2.9960    3.0350   20.2330 H   0  0  0  0  0  0  0  0  0  0  0  0
    1.5070    4.9560   20.3350 H   0  0  0  0  0  0  0  0  0  0  0  0
    4.6780    7.4450   18.7900 H   0  0  0  0  0  0  0  0  0  0  0  0
    6.6670    5.5290   18.4440 C   0  0  0  0  0  0  0  0  0  0  0  0
    7.0820    6.9090   17.8510 C   0  0  0  0  0  0  0  0  0  0  0  0
    8.3600    6.8420   18.5450 O   0  0  0  0  0  0  0  0  0  0  0  0
    7.7700    5.8960   19.4810 C   0  0  0  0  0  0  0  0  0  0  0  0
    6.5010    7.7750   18.1910 H   0  0  0  0  0  0  0  0  0  0  0  0
    7.2120    6.9730   16.7690 H   0  0  0  0  0  0  0  0  0  0  0  0
    8.4690    5.1010   19.7550 H   0  0  0  0  0  0  0  0  0  0  0  0
    7.4360    6.4100   20.3910 H   0  0  0  0  0  0  0  0  0  0  0  0
    7.0910    4.3050   17.6050 C   0  0  0  0  0  0  0  0  0  0  0  0
    8.1700    4.1360   17.7020 H   0  0  0  0  0  0  0  0  0  0  0  0
    6.6230    3.3960   18.0070 H   0  0  0  0  0  0  0  0  0  0  0  0
    5.5320    4.0940   15.6070 N   0  0  0  0  0  0  0  0  0  0  0  0
    5.6500    4.3230   14.2700 C   0  0  0  0  0  0  0  0  0  0  0  0
    6.8500    4.7810   14.0090 N   0  0  0  0  0  0  0  0  0  0  0  0
    7.5340    4.8550   15.1970 N   0  0  0  0  0  0  0  0  0  0  0  0
    6.7440    4.4250   16.1610 C   0  0  0  0  0  0  0  0  0  0  0  0
    4.8620    4.1490   13.5480 H   0  0  0  0  0  0  0  0  0  0  0  0
    4.3570    3.6070   16.2760 C   0  0  0  0  0  0  0  0  0  0  0  0
    4.2150    4.1920   17.1880 H   0  0  0  0  0  0  0  0  0  0  0  0
    4.4920    2.5500   16.5120 H   0  0  0  0  0  0  0  0  0  0  0  0
    3.4870    3.7240   15.6230 H   0  0  0  0  0  0  0  0  0  0  0  0
   -0.4150    9.6980   22.6200 C   0  0  0  0  0  0  0  0  0  0  0  0
   -1.0580    8.5100   22.7930 F   0  0  0  0  0  0  0  0  0  0  0  0
    0.7040    9.6360   23.3920 F   0  0  0  0  0  0  0  0  0  0  0  0
   -1.2160   10.6390   23.1920 F   0  0  0  0  0  0  0  0  0  0  0  0
   -1.0280   12.6180   18.4980 C   0  0  0  0  0  0  0  0  0  0  0  0
   -1.9890   12.7970   19.0000 H   0  0  0  0  0  0  0  0  0  0  0  0
   -1.2620   12.4190   17.4450 H   0  0  0  0  0  0  0  0  0  0  0  0
   -0.1710   13.8040   18.6130 N   0  0  0  0  0  0  0  0  0  0  0  0
   -0.4760   14.6350   19.7880 C   0  0  0  0  0  0  0  0  0  0  0  0
    0.5640   14.5370   20.9040 C   0  0  0  0  0  0  0  0  0  0  0  0
    1.9560   14.9260   20.4090 C   0  0  0  0  0  0  0  0  0  0  0  0
    2.1730   14.5590   18.9420 C   0  0  0  0  0  0  0  0  0  0  0  0
    1.2460   13.4270   18.5040 C   0  0  0  0  0  0  0  0  0  0  0  0
   -0.5240   15.6780   19.4500 H   0  0  0  0  0  0  0  0  0  0  0  0
   -1.4670   14.4180   20.2060 H   0  0  0  0  0  0  0  0  0  0  0  0
    0.2800   15.1840   21.7420 H   0  0  0  0  0  0  0  0  0  0  0  0
    0.5860   13.5110   21.2930 H   0  0  0  0  0  0  0  0  0  0  0  0
    2.7080   14.4360   21.0370 H   0  0  0  0  0  0  0  0  0  0  0  0
    2.1090   16.0050   20.5310 H   0  0  0  0  0  0  0  0  0  0  0  0
    3.2190   14.2750   18.7820 H   0  0  0  0  0  0  0  0  0  0  0  0
    1.9940   15.4420   18.3140 H   0  0  0  0  0  0  0  0  0  0  0  0
    1.4640   12.5380   19.1110 H   0  0  0  0  0  0  0  0  0  0  0  0
    1.4680   13.1700   17.4620 H   0  0  0  0  0  0  0  0  0  0  0  0
  1  2  1  0  0  0  0
  2 12  1  0  0  0  0
  2 11  1  0  0  0  0
  3  2  1  0  0  0  0
  3  8  1  0  0  0  0
  4  3  2  0  0  0  0
  5  4  1  0  0  0  0
  5  6  2  0  0  0  0
  6  7  1  0  0  0  0
  7 14  1  0  0  0  0
  7  8  2  0  0  0  0
  8 46  1  0  0  0  0
  9  4  1  0  0  0  0
  9  1  1  0  0  0  0
 10  9  2  0  0  0  0
 13  5  1  0  0  0  0
 15 20  2  0  0  0  0
 15 16  1  0  0  0  0
 16 17  2  0  0  0  0
 17 18  1  0  0  0  0
 17 22  1  0  0  0  0
 18 23  1  0  0  0  0
 19  1  1  0  0  0  0
 19 18  2  0  0  0  0
 20 19  1  0  0  0  0
 21 16  1  0  0  0  0
 24 20  1  0  0  0  0
 25 15  1  0  0  0  0
 25 28  1  0  0  0  0
 26 29  1  0  0  0  0
 26 25  1  0  0  0  0
 26 27  1  0  0  0  0
 27 28  1  0  0  0  0
 28 31  1  0  0  0  0
 28 32  1  0  0  0  0
 30 26  1  0  0  0  0
 33 34  1  0  0  0  0
 33 35  1  0  0  0  0
 33 25  1  0  0  0  0
 36 40  1  0  0  0  0
 36 42  1  0  0  0  0
 37 36  1  0  0  0  0
 38 37  2  0  0  0  0
 38 39  1  0  0  0  0
 39 40  2  0  0  0  0
 40 33  1  0  0  0  0
 41 37  1  0  0  0  0
 42 44  1  0  0  0  0
 42 43  1  0  0  0  0
 45 42  1  0  0  0  0
 46 47  1  0  0  0  0
 46 49  1  0  0  0  0
 46 48  1  0  0  0  0
 50 53  1  0  0  0  0
 50 51  1  0  0  0  0
 50  6  1  0  0  0  0
 52 50  1  0  0  0  0
 53 54  1  0  0  0  0
 54 60  1  0  0  0  0
 54 55  1  0  0  0  0
 55 62  1  0  0  0  0
 55 61  1  0  0  0  0
 56 64  1  0  0  0  0
 56 55  1  0  0  0  0
 56 63  1  0  0  0  0
 57 56  1  0  0  0  0
 58 53  1  0  0  0  0
 58 57  1  0  0  0  0
 58 67  1  0  0  0  0
 59 54  1  0  0  0  0
 65 57  1  0  0  0  0
 66 57  1  0  0  0  0
 68 58  1  0  0  0  0
M  END
>  <MODEL>
8

>  <REMARK>
 VINA RESULT:    -8.640      2.827      8.845
 INTER + INTRA:         -13.592
 INTER:                 -12.665
 INTRA:                  -0.927
 UNBOUND:                -1.163
  Name = 
  8 active torsions:
  status: ('A' for Active; 'I' for Inactive)
    1  A    between atoms: C_1  and  N_2
    2  A    between atoms: C_6  and  C_7
    3  A    between atoms: C_7  and  C_8
    4  A    between atoms: C_8  and  C_12
    5  A    between atoms: C_16  and  N_18
    6  A    between atoms: C_23  and  C_24
    7  A    between atoms: C_24  and  N_25
    8  A    between atoms: C_32  and  C_33
                            x       y       z     vdW  Elec       q    Type
                         _______ _______ _______ _____ _____    ______ ____

>  <TORSDO>
F 8

$$$$
=
 OpenBabel07192307433D

 68 73  0  0  0  0  0  0  0  0999 V2000
    2.1320    7.4890   19.4570 N   0  0  0  0  0  0  0  0  0  0  0  0
    1.4930    7.8430   20.7160 C   0  0  0  0  0  0  0  0  0  0  0  0
    0.9010    9.1880   20.4480 C   0  0  0  0  0  0  0  0  0  0  0  0
    1.1900    9.5710   19.1450 C   0  0  0  0  0  0  0  0  0  0  0  0
    0.7840   10.7820   18.6180 C   0  0  0  0  0  0  0  0  0  0  0  0
    0.0460   11.6490   19.4410 C   0  0  0  0  0  0  0  0  0  0  0  0
   -0.2510   11.2600   20.7680 C   0  0  0  0  0  0  0  0  0  0  0  0
    0.1720   10.0220   21.2910 C   0  0  0  0  0  0  0  0  0  0  0  0
    1.9720    8.5040   18.5050 C   0  0  0  0  0  0  0  0  0  0  0  0
    2.3680    8.5990   17.3590 O   0  0  0  0  0  0  0  0  0  0  0  0
    2.2480    7.9060   21.5070 H   0  0  0  0  0  0  0  0  0  0  0  0
    0.7110    7.1130   20.9540 H   0  0  0  0  0  0  0  0  0  0  0  0
    1.0300   11.0490   17.5930 H   0  0  0  0  0  0  0  0  0  0  0  0
   -0.8220   11.9390   21.4040 H   0  0  0  0  0  0  0  0  0  0  0  0
    4.4700    4.9110   17.9760 C   0  0  0  0  0  0  0  0  0  0  0  0
    4.2470    3.8630   18.8830 C   0  0  0  0  0  0  0  0  0  0  0  0
    3.3610    3.9930   19.9500 C   0  0  0  0  0  0  0  0  0  0  0  0
    2.6600    5.1830   20.1420 C   0  0  0  0  0  0  0  0  0  0  0  0
    2.8400    6.2670   19.2810 C   0  0  0  0  0  0  0  0  0  0  0  0
    3.7530    6.1090   18.2190 C   0  0  0  0  0  0  0  0  0  0  0  0
    4.7930    2.9260   18.7710 H   0  0  0  0  0  0  0  0  0  0  0  0
    3.2210    3.1660   20.6420 H   0  0  0  0  0  0  0  0  0  0  0  0
    1.9840    5.2320   20.9900 H   0  0  0  0  0  0  0  0  0  0  0  0
    3.9300    6.9320   17.5310 H   0  0  0  0  0  0  0  0  0  0  0  0
    5.4750    4.7580   16.7320 C   0  0  0  0  0  0  0  0  0  0  0  0
    5.1200    3.7100   15.6360 C   0  0  0  0  0  0  0  0  0  0  0  0
    5.4730    4.6580   14.5900 O   0  0  0  0  0  0  0  0  0  0  0  0
    5.2670    5.7410   15.5410 C   0  0  0  0  0  0  0  0  0  0  0  0
    4.0620    3.4280   15.5630 H   0  0  0  0  0  0  0  0  0  0  0  0
    5.7310    2.8070   15.5870 H   0  0  0  0  0  0  0  0  0  0  0  0
    6.0110    6.5340   15.4260 H   0  0  0  0  0  0  0  0  0  0  0  0
    4.2650    6.1700   15.4280 H   0  0  0  0  0  0  0  0  0  0  0  0
    6.9500    4.7530   17.1860 C   0  0  0  0  0  0  0  0  0  0  0  0
    7.0850    4.0590   18.0250 H   0  0  0  0  0  0  0  0  0  0  0  0
    7.5870    4.3570   16.3840 H   0  0  0  0  0  0  0  0  0  0  0  0
    7.9630    6.4240   18.8140 N   0  0  0  0  0  0  0  0  0  0  0  0
    8.2750    7.7480   18.7590 C   0  0  0  0  0  0  0  0  0  0  0  0
    7.9950    8.2140   17.5670 N   0  0  0  0  0  0  0  0  0  0  0  0
    7.4900    7.1760   16.8230 N   0  0  0  0  0  0  0  0  0  0  0  0
    7.4560    6.0980   17.5810 C   0  0  0  0  0  0  0  0  0  0  0  0
    8.6900    8.3130   19.5840 H   0  0  0  0  0  0  0  0  0  0  0  0
    8.1460    5.5640   19.9510 C   0  0  0  0  0  0  0  0  0  0  0  0
    7.2340    4.9790   20.0880 H   0  0  0  0  0  0  0  0  0  0  0  0
    8.3500    6.1750   20.8330 H   0  0  0  0  0  0  0  0  0  0  0  0
    8.9920    4.8940   19.7730 H   0  0  0  0  0  0  0  0  0  0  0  0
   -0.1430    9.6090   22.7030 C   0  0  0  0  0  0  0  0  0  0  0  0
   -0.9380    8.5040   22.7530 F   0  0  0  0  0  0  0  0  0  0  0  0
    0.9560    9.3160   23.4490 F   0  0  0  0  0  0  0  0  0  0  0  0
   -0.8150   10.5780   23.3850 F   0  0  0  0  0  0  0  0  0  0  0  0
   -0.3940   13.0050   18.9220 C   0  0  0  0  0  0  0  0  0  0  0  0
   -1.2180   13.3240   19.5750 H   0  0  0  0  0  0  0  0  0  0  0  0
   -0.8170   12.9140   17.9130 H   0  0  0  0  0  0  0  0  0  0  0  0
    0.6770   14.0080   18.9360 N   0  0  0  0  0  0  0  0  0  0  0  0
    1.0080   14.4920   20.2850 C   0  0  0  0  0  0  0  0  0  0  0  0
    2.3370   13.9640   20.8250 C   0  0  0  0  0  0  0  0  0  0  0  0
    3.5000   14.3280   19.9030 C   0  0  0  0  0  0  0  0  0  0  0  0
    3.0820   14.3790   18.4350 C   0  0  0  0  0  0  0  0  0  0  0  0
    1.8410   13.5290   18.1750 C   0  0  0  0  0  0  0  0  0  0  0  0
    1.0630   15.5870   20.2370 H   0  0  0  0  0  0  0  0  0  0  0  0
    0.2170   14.2710   21.0130 H   0  0  0  0  0  0  0  0  0  0  0  0
    2.5250   14.3680   21.8260 H   0  0  0  0  0  0  0  0  0  0  0  0
    2.2810   12.8740   20.9320 H   0  0  0  0  0  0  0  0  0  0  0  0
    4.3070   13.6000   20.0420 H   0  0  0  0  0  0  0  0  0  0  0  0
    3.9140   15.3030   20.1880 H   0  0  0  0  0  0  0  0  0  0  0  0
    3.9100   14.0430   17.8010 H   0  0  0  0  0  0  0  0  0  0  0  0
    2.8780   15.4200   18.1480 H   0  0  0  0  0  0  0  0  0  0  0  0
    2.0710   12.4840   18.4250 H   0  0  0  0  0  0  0  0  0  0  0  0
    1.6050   13.5620   17.1050 H   0  0  0  0  0  0  0  0  0  0  0  0
  1  2  1  0  0  0  0
  2 12  1  0  0  0  0
  2 11  1  0  0  0  0
  3  2  1  0  0  0  0
  3  8  1  0  0  0  0
  4  3  2  0  0  0  0
  5  4  1  0  0  0  0
  5  6  2  0  0  0  0
  6  7  1  0  0  0  0
  7  8  2  0  0  0  0
  7 14  1  0  0  0  0
  8 46  1  0  0  0  0
  9  4  1  0  0  0  0
  9  1  1  0  0  0  0
 10  9  2  0  0  0  0
 13  5  1  0  0  0  0
 15 20  2  0  0  0  0
 15 16  1  0  0  0  0
 16 17  2  0  0  0  0
 17 18  1  0  0  0  0
 17 22  1  0  0  0  0
 18 23  1  0  0  0  0
 19  1  1  0  0  0  0
 19 18  2  0  0  0  0
 20 19  1  0  0  0  0
 21 16  1  0  0  0  0
 24 20  1  0  0  0  0
 25 33  1  0  0  0  0
 25 15  1  0  0  0  0
 26 25  1  0  0  0  0
 27 28  1  0  0  0  0
 27 26  1  0  0  0  0
 28 25  1  0  0  0  0
 29 26  1  0  0  0  0
 30 26  1  0  0  0  0
 31 28  1  0  0  0  0
 32 28  1  0  0  0  0
 33 40  1  0  0  0  0
 33 34  1  0  0  0  0
 35 33  1  0  0  0  0
 36 42  1  0  0  0  0
 37 36  1  0  0  0  0
 37 41  1  0  0  0  0
 38 37  2  0  0  0  0
 39 38  1  0  0  0  0
 39 40  2  0  0  0  0
 40 36  1  0  0  0  0
 42 43  1  0  0  0  0
 42 44  1  0  0  0  0
 45 42  1  0  0  0  0
 46 47  1  0  0  0  0
 46 49  1  0  0  0  0
 46 48  1  0  0  0  0
 50 53  1  0  0  0  0
 50  6  1  0  0  0  0
 50 51  1  0  0  0  0
 52 50  1  0  0  0  0
 53 54  1  0  0  0  0
 54 55  1  0  0  0  0
 54 60  1  0  0  0  0
 55 62  1  0  0  0  0
 55 61  1  0  0  0  0
 56 63  1  0  0  0  0
 56 64  1  0  0  0  0
 56 55  1  0  0  0  0
 57 56  1  0  0  0  0
 58 67  1  0  0  0  0
 58 57  1  0  0  0  0
 58 53  1  0  0  0  0
 59 54  1  0  0  0  0
 65 57  1  0  0  0  0
 66 57  1  0  0  0  0
 68 58  1  0  0  0  0
M  END
>  <MODEL>
9

>  <REMARK>
 VINA RESULT:    -8.638      3.033      8.842
 INTER + INTRA:         -13.588
 INTER:                 -12.981
 INTRA:                  -0.607
 UNBOUND:                -1.163
  Name = 
  8 active torsions:
  status: ('A' for Active; 'I' for Inactive)
    1  A    between atoms: C_1  and  N_2
    2  A    between atoms: C_6  and  C_7
    3  A    between atoms: C_7  and  C_8
    4  A    between atoms: C_8  and  C_12
    5  A    between atoms: C_16  and  N_18
    6  A    between atoms: C_23  and  C_24
    7  A    between atoms: C_24  and  N_25
    8  A    between atoms: C_32  and  C_33
                            x       y       z     vdW  Elec       q    Type
                         _______ _______ _______ _____ _____    ______ ____

>  <TORSDO>
F 8

$$$$
=
 OpenBabel07192307433D

 68 73  0  0  0  0  0  0  0  0999 V2000
    1.5640    7.7090   20.0730 N   0  0  0  0  0  0  0  0  0  0  0  0
    1.4880    6.4210   20.7490 C   0  0  0  0  0  0  0  0  0  0  0  0
    2.3770    5.5400   19.9330 C   0  0  0  0  0  0  0  0  0  0  0  0
    2.9060    6.2670   18.8740 C   0  0  0  0  0  0  0  0  0  0  0  0
    3.7550    5.7070   17.9380 C   0  0  0  0  0  0  0  0  0  0  0  0
    4.0920    4.3510   18.0760 C   0  0  0  0  0  0  0  0  0  0  0  0
    3.5560    3.6090   19.1550 C   0  0  0  0  0  0  0  0  0  0  0  0
    2.6910    4.1950   20.1010 C   0  0  0  0  0  0  0  0  0  0  0  0
    2.3970    7.6430   18.9500 C   0  0  0  0  0  0  0  0  0  0  0  0
    2.6980    8.4840   18.1240 O   0  0  0  0  0  0  0  0  0  0  0  0
    0.4580    6.0530   20.7260 H   0  0  0  0  0  0  0  0  0  0  0  0
    1.8660    6.5160   21.7730 H   0  0  0  0  0  0  0  0  0  0  0  0
    4.1480    6.3070   17.1210 H   0  0  0  0  0  0  0  0  0  0  0  0
    3.8190    2.5540   19.2550 H   0  0  0  0  0  0  0  0  0  0  0  0
   -0.6990   10.7390   20.0190 C   0  0  0  0  0  0  0  0  0  0  0  0
   -0.5980   11.1150   21.3680 C   0  0  0  0  0  0  0  0  0  0  0  0
    0.1830   10.3990   22.2720 C   0  0  0  0  0  0  0  0  0  0  0  0
    0.8990    9.2790   21.8510 C   0  0  0  0  0  0  0  0  0  0  0  0
    0.8380    8.8470   20.5250 C   0  0  0  0  0  0  0  0  0  0  0  0
    0.0280    9.5840   19.6370 C   0  0  0  0  0  0  0  0  0  0  0  0
   -1.1600   11.9750   21.7330 H   0  0  0  0  0  0  0  0  0  0  0  0
    0.2290   10.7090   23.3130 H   0  0  0  0  0  0  0  0  0  0  0  0
    1.4910    8.7570   22.5960 H   0  0  0  0  0  0  0  0  0  0  0  0
   -0.0550    9.2760   18.5980 H   0  0  0  0  0  0  0  0  0  0  0  0
   -1.5830   11.5730   18.9690 C   0  0  0  0  0  0  0  0  0  0  0  0
   -2.6650   10.8010   18.1550 C   0  0  0  0  0  0  0  0  0  0  0  0
   -3.6210   11.8770   18.3750 O   0  0  0  0  0  0  0  0  0  0  0  0
   -2.8440   12.2940   19.5330 C   0  0  0  0  0  0  0  0  0  0  0  0
   -3.0250    9.8660   18.5980 H   0  0  0  0  0  0  0  0  0  0  0  0
   -2.4750   10.6400   17.0930 H   0  0  0  0  0  0  0  0  0  0  0  0
   -2.7880   13.3830   19.6180 H   0  0  0  0  0  0  0  0  0  0  0  0
   -3.2720   11.8830   20.4550 H   0  0  0  0  0  0  0  0  0  0  0  0
   -0.7190   12.5500   18.1430 C   0  0  0  0  0  0  0  0  0  0  0  0
   -0.2100   12.0120   17.3330 H   0  0  0  0  0  0  0  0  0  0  0  0
   -1.3620   13.2830   17.6380 H   0  0  0  0  0  0  0  0  0  0  0  0
    1.6460   13.0380   18.9410 N   0  0  0  0  0  0  0  0  0  0  0  0
    2.1960   13.8970   19.8440 C   0  0  0  0  0  0  0  0  0  0  0  0
    1.2520   14.6350   20.3750 N   0  0  0  0  0  0  0  0  0  0  0  0
    0.0600   14.2560   19.8100 N   0  0  0  0  0  0  0  0  0  0  0  0
    0.2950   13.2800   18.9550 C   0  0  0  0  0  0  0  0  0  0  0  0
    3.2520   13.9470   20.0740 H   0  0  0  0  0  0  0  0  0  0  0  0
    2.3660   12.0840   18.1430 C   0  0  0  0  0  0  0  0  0  0  0  0
    3.1190   12.6210   17.5620 H   0  0  0  0  0  0  0  0  0  0  0  0
    1.6640   11.5680   17.4830 H   0  0  0  0  0  0  0  0  0  0  0  0
    2.8530   11.3520   18.7940 H   0  0  0  0  0  0  0  0  0  0  0  0
    2.1200    3.4050   21.2470 C   0  0  0  0  0  0  0  0  0  0  0  0
    2.6430    2.1490   21.3190 F   0  0  0  0  0  0  0  0  0  0  0  0
    2.3320    3.9710   22.4660 F   0  0  0  0  0  0  0  0  0  0  0  0
    0.7730    3.2380   21.1380 F   0  0  0  0  0  0  0  0  0  0  0  0
    4.9910    3.6790   17.0560 C   0  0  0  0  0  0  0  0  0  0  0  0
    4.5010    2.7300   16.8010 H   0  0  0  0  0  0  0  0  0  0  0  0
    5.9580    3.4170   17.5060 H   0  0  0  0  0  0  0  0  0  0  0  0
    5.1960    4.4820   15.8440 N   0  0  0  0  0  0  0  0  0  0  0  0
    6.2820    5.4660   15.9710 C   0  0  0  0  0  0  0  0  0  0  0  0
    7.5470    5.0990   15.1960 C   0  0  0  0  0  0  0  0  0  0  0  0
    7.2580    4.9150   13.7070 C   0  0  0  0  0  0  0  0  0  0  0  0
    5.8540    4.3680   13.4520 C   0  0  0  0  0  0  0  0  0  0  0  0
    5.3180    3.6120   14.6650 C   0  0  0  0  0  0  0  0  0  0  0  0
    5.9050    6.4220   15.5860 H   0  0  0  0  0  0  0  0  0  0  0  0
    6.5500    5.6580   17.0170 H   0  0  0  0  0  0  0  0  0  0  0  0
    8.3090    5.8740   15.3270 H   0  0  0  0  0  0  0  0  0  0  0  0
    7.9690    4.1720   15.6040 H   0  0  0  0  0  0  0  0  0  0  0  0
    8.0100    4.2440   13.2770 H   0  0  0  0  0  0  0  0  0  0  0  0
    7.3650    5.8730   13.1830 H   0  0  0  0  0  0  0  0  0  0  0  0
    5.8660    3.7130   12.5730 H   0  0  0  0  0  0  0  0  0  0  0  0
    5.1770    5.1970   13.2080 H   0  0  0  0  0  0  0  0  0  0  0  0
    5.9810    2.7610   14.8710 H   0  0  0  0  0  0  0  0  0  0  0  0
    4.3310    3.2020   14.4200 H   0  0  0  0  0  0  0  0  0  0  0  0
  1 19  1  0  0  0  0
  1  2  1  0  0  0  0
  2 12  1  0  0  0  0
  3  8  1  0  0  0  0
  3  2  1  0  0  0  0
  4  9  1  0  0  0  0
  4  3  2  0  0  0  0
  5  6  2  0  0  0  0
  5  4  1  0  0  0  0
  6  7  1  0  0  0  0
  7 14  1  0  0  0  0
  7  8  2  0  0  0  0
  8 46  1  0  0  0  0
  9  1  1  0  0  0  0
 10  9  2  0  0  0  0
 11  2  1  0  0  0  0
 13  5  1  0  0  0  0
 15 16  1  0  0  0  0
 16 21  1  0  0  0  0
 16 17  2  0  0  0  0
 17 22  1  0  0  0  0
 18 17  1  0  0  0  0
 18 23  1  0  0  0  0
 19 18  2  0  0  0  0
 20 15  2  0  0  0  0
 20 19  1  0  0  0  0
 24 20  1  0  0  0  0
 25 28  1  0  0  0  0
 25 15  1  0  0  0  0
 26 27  1  0  0  0  0
 26 29  1  0  0  0  0
 26 25  1  0  0  0  0
 27 28  1  0  0  0  0
 28 31  1  0  0  0  0
 28 32  1  0  0  0  0
 30 26  1  0  0  0  0
 33 40  1  0  0  0  0
 33 25  1  0  0  0  0
 34 33  1  0  0  0  0
 35 33  1  0  0  0  0
 36 40  1  0  0  0  0
 36 37  1  0  0  0  0
 37 41  1  0  0  0  0
 37 38  2  0  0  0  0
 39 38  1  0  0  0  0
 40 39  2  0  0  0  0
 42 45  1  0  0  0  0
 42 36  1  0  0  0  0
 43 42  1  0  0  0  0
 44 42  1  0  0  0  0
 46 47  1  0  0  0  0
 46 48  1  0  0  0  0
 49 46  1  0  0  0  0
 50 52  1  0  0  0  0
 50  6  1  0  0  0  0
 51 50  1  0  0  0  0
 53 54  1  0  0  0  0
 53 50  1  0  0  0  0
 54 60  1  0  0  0  0
 55 61  1  0  0  0  0
 55 62  1  0  0  0  0
 55 54  1  0  0  0  0
 56 55  1  0  0  0  0
 57 56  1  0  0  0  0
 57 58  1  0  0  0  0
 58 67  1  0  0  0  0
 58 53  1  0  0  0  0
 59 54  1  0  0  0  0
 63 56  1  0  0  0  0
 64 56  1  0  0  0  0
 65 57  1  0  0  0  0
 66 57  1  0  0  0  0
 68 58  1  0  0  0  0
M  END
>  <MODEL>
10

>  <REMARK>
 VINA RESULT:    -8.367      2.011      3.136
 INTER + INTRA:         -13.199
 INTER:                 -12.065
 INTRA:                  -1.134
 UNBOUND:                -1.163
  Name = 
  8 active torsions:
  status: ('A' for Active; 'I' for Inactive)
    1  A    between atoms: C_1  and  N_2
    2  A    between atoms: C_6  and  C_7
    3  A    between atoms: C_7  and  C_8
    4  A    between atoms: C_8  and  C_12
    5  A    between atoms: C_16  and  N_18
    6  A    between atoms: C_23  and  C_24
    7  A    between atoms: C_24  and  N_25
    8  A    between atoms: C_32  and  C_33
                            x       y       z     vdW  Elec       q    Type
                         _______ _______ _______ _____ _____    ______ ____

>  <TORSDO>
F 8

$$$$
=
 OpenBabel07192307433D

 68 73  0  0  0  0  0  0  0  0999 V2000
    1.5470    7.5660   20.1890 N   0  0  0  0  0  0  0  0  0  0  0  0
    1.4370    6.2410   20.7810 C   0  0  0  0  0  0  0  0  0  0  0  0
    2.2410    5.3760   19.8670 C   0  0  0  0  0  0  0  0  0  0  0  0
    2.7570    6.1460   18.8330 C   0  0  0  0  0  0  0  0  0  0  0  0
    3.5310    5.6120   17.8210 C   0  0  0  0  0  0  0  0  0  0  0  0
    3.8040    4.2350   17.8520 C   0  0  0  0  0  0  0  0  0  0  0  0
    3.2810    3.4480   18.9050 C   0  0  0  0  0  0  0  0  0  0  0  0
    2.4920    4.0080   19.9300 C   0  0  0  0  0  0  0  0  0  0  0  0
    2.3230    7.5370   19.0240 C   0  0  0  0  0  0  0  0  0  0  0  0
    2.6280    8.4180   18.2420 O   0  0  0  0  0  0  0  0  0  0  0  0
    0.3890    5.9240   20.7850 H   0  0  0  0  0  0  0  0  0  0  0  0
    1.8660    6.2470   21.7900 H   0  0  0  0  0  0  0  0  0  0  0  0
    3.9160    6.2470   17.0270 H   0  0  0  0  0  0  0  0  0  0  0  0
    3.4940    2.3770   18.9230 H   0  0  0  0  0  0  0  0  0  0  0  0
   -0.3780   10.8140   20.4190 C   0  0  0  0  0  0  0  0  0  0  0  0
   -0.3680   10.9800   21.8130 C   0  0  0  0  0  0  0  0  0  0  0  0
    0.2480   10.0570   22.6560 C   0  0  0  0  0  0  0  0  0  0  0  0
    0.8820    8.9330   22.1280 C   0  0  0  0  0  0  0  0  0  0  0  0
    0.9020    8.7040   20.7510 C   0  0  0  0  0  0  0  0  0  0  0  0
    0.2600    9.6490   19.9250 C   0  0  0  0  0  0  0  0  0  0  0  0
   -0.8710   11.8380   22.2600 H   0  0  0  0  0  0  0  0  0  0  0  0
    0.2260   10.2080   23.7330 H   0  0  0  0  0  0  0  0  0  0  0  0
    1.3430    8.2450   22.8290 H   0  0  0  0  0  0  0  0  0  0  0  0
    0.2440    9.5030   18.8480 H   0  0  0  0  0  0  0  0  0  0  0  0
   -1.0680   11.8850   19.4420 C   0  0  0  0  0  0  0  0  0  0  0  0
   -0.8600   13.3970   19.7590 C   0  0  0  0  0  0  0  0  0  0  0  0
   -0.6210   13.6760   18.3500 O   0  0  0  0  0  0  0  0  0  0  0  0
   -0.2740   12.2750   18.1600 C   0  0  0  0  0  0  0  0  0  0  0  0
    0.0230   13.6470   20.3590 H   0  0  0  0  0  0  0  0  0  0  0  0
   -1.7170   13.9530   20.1420 H   0  0  0  0  0  0  0  0  0  0  0  0
   -0.6530   11.8850   17.2110 H   0  0  0  0  0  0  0  0  0  0  0  0
    0.8140   12.1390   18.1960 H   0  0  0  0  0  0  0  0  0  0  0  0
   -2.5170   11.4870   19.0870 C   0  0  0  0  0  0  0  0  0  0  0  0
   -2.9060   10.7780   19.8280 H   0  0  0  0  0  0  0  0  0  0  0  0
   -3.1740   12.3640   19.1600 H   0  0  0  0  0  0  0  0  0  0  0  0
   -3.7120   11.1020   16.8760 N   0  0  0  0  0  0  0  0  0  0  0  0
   -3.4560   10.3590   15.7640 C   0  0  0  0  0  0  0  0  0  0  0  0
   -2.3090    9.7410   15.9060 N   0  0  0  0  0  0  0  0  0  0  0  0
   -1.8000   10.0860   17.1330 N   0  0  0  0  0  0  0  0  0  0  0  0
   -2.6540   10.8950   17.7270 C   0  0  0  0  0  0  0  0  0  0  0  0
   -4.1120   10.3000   14.9040 H   0  0  0  0  0  0  0  0  0  0  0  0
   -4.8660   11.9340   17.0840 C   0  0  0  0  0  0  0  0  0  0  0  0
   -4.9950   12.0760   18.1590 H   0  0  0  0  0  0  0  0  0  0  0  0
   -5.7410   11.4450   16.6510 H   0  0  0  0  0  0  0  0  0  0  0  0
   -4.7150   12.9010   16.5980 H   0  0  0  0  0  0  0  0  0  0  0  0
    1.9350    3.1700   21.0480 C   0  0  0  0  0  0  0  0  0  0  0  0
    0.5730    3.1780   21.0700 F   0  0  0  0  0  0  0  0  0  0  0  0
    2.3030    1.8620   20.9920 F   0  0  0  0  0  0  0  0  0  0  0  0
    2.3260    3.6200   22.2730 F   0  0  0  0  0  0  0  0  0  0  0  0
    4.6200    3.5920   16.7470 C   0  0  0  0  0  0  0  0  0  0  0  0
    3.9610    2.8480   16.2800 H   0  0  0  0  0  0  0  0  0  0  0  0
    5.4670    3.0340   17.1660 H   0  0  0  0  0  0  0  0  0  0  0  0
    5.0910    4.5510   15.7400 N   0  0  0  0  0  0  0  0  0  0  0  0
    6.2150    5.3800   16.2020 C   0  0  0  0  0  0  0  0  0  0  0  0
    7.5590    5.0060   15.5780 C   0  0  0  0  0  0  0  0  0  0  0  0
    7.5130    5.0940   14.0530 C   0  0  0  0  0  0  0  0  0  0  0  0
    6.1340    4.7490   13.4940 C   0  0  0  0  0  0  0  0  0  0  0  0
    5.3410    3.8720   14.4600 C   0  0  0  0  0  0  0  0  0  0  0  0
    5.9870    6.4200   15.9370 H   0  0  0  0  0  0  0  0  0  0  0  0
    6.3170    5.3720   17.2940 H   0  0  0  0  0  0  0  0  0  0  0  0
    8.3480    5.6640   15.9580 H   0  0  0  0  0  0  0  0  0  0  0  0
    7.8300    3.9860   15.8780 H   0  0  0  0  0  0  0  0  0  0  0  0
    8.2710    4.4230   13.6340 H   0  0  0  0  0  0  0  0  0  0  0  0
    7.7850    6.1060   13.7280 H   0  0  0  0  0  0  0  0  0  0  0  0
    6.2420    4.2450   12.5270 H   0  0  0  0  0  0  0  0  0  0  0  0
    5.5760    5.6740   13.2980 H   0  0  0  0  0  0  0  0  0  0  0  0
    5.8890    2.9320   14.6140 H   0  0  0  0  0  0  0  0  0  0  0  0
    4.3800    3.6150   13.9990 H   0  0  0  0  0  0  0  0  0  0  0  0
  1 19  1  0  0  0  0
  1  2  1  0  0  0  0
  2 11  1  0  0  0  0
  2 12  1  0  0  0  0
  3  8  1  0  0  0  0
  3  2  1  0  0  0  0
  4  9  1  0  0  0  0
  4  3  2  0  0  0  0
  5  6  2  0  0  0  0
  5  4  1  0  0  0  0
  6  7  1  0  0  0  0
  7 14  1  0  0  0  0
  7  8  2  0  0  0  0
  8 46  1  0  0  0  0
  9  1  1  0  0  0  0
 10  9  2  0  0  0  0
 13  5  1  0  0  0  0
 15 16  1  0  0  0  0
 16 21  1  0  0  0  0
 16 17  2  0  0  0  0
 17 22  1  0  0  0  0
 18 17  1  0  0  0  0
 18 23  1  0  0  0  0
 19 18  2  0  0  0  0
 20 15  2  0  0  0  0
 20 19  1  0  0  0  0
 24 20  1  0  0  0  0
 25 26  1  0  0  0  0
 25 15  1  0  0  0  0
 26 30  1  0  0  0  0
 26 29  1  0  0  0  0
 27 26  1  0  0  0  0
 28 32  1  0  0  0  0
 28 27  1  0  0  0  0
 28 25  1  0  0  0  0
 31 28  1  0  0  0  0
 33 35  1  0  0  0  0
 33 25  1  0  0  0  0
 33 34  1  0  0  0  0
 36 42  1  0  0  0  0
 36 40  1  0  0  0  0
 37 38  2  0  0  0  0
 37 36  1  0  0  0  0
 38 39  1  0  0  0  0
 39 40  2  0  0  0  0
 40 33  1  0  0  0  0
 41 37  1  0  0  0  0
 42 43  1  0  0  0  0
 44 42  1  0  0  0  0
 45 42  1  0  0  0  0
 46 47  1  0  0  0  0
 46 49  1  0  0  0  0
 48 46  1  0  0  0  0
 50 52  1  0  0  0  0
 50  6  1  0  0  0  0
 51 50  1  0  0  0  0
 53 54  1  0  0  0  0
 53 50  1  0  0  0  0
 54 60  1  0  0  0  0
 55 62  1  0  0  0  0
 55 61  1  0  0  0  0
 55 54  1  0  0  0  0
 56 55  1  0  0  0  0
 57 56  1  0  0  0  0
 57 58  1  0  0  0  0
 58 67  1  0  0  0  0
 58 53  1  0  0  0  0
 59 54  1  0  0  0  0
 63 56  1  0  0  0  0
 64 56  1  0  0  0  0
 65 57  1  0  0  0  0
 66 57  1  0  0  0  0
 68 58  1  0  0  0  0
M  END
>  <MODEL>
11

>  <REMARK>
 VINA RESULT:    -8.341      0.994      1.622
 INTER + INTRA:         -13.162
 INTER:                 -12.760
 INTRA:                  -0.401
 UNBOUND:                -1.163
  Name = 
  8 active torsions:
  status: ('A' for Active; 'I' for Inactive)
    1  A    between atoms: C_1  and  N_2
    2  A    between atoms: C_6  and  C_7
    3  A    between atoms: C_7  and  C_8
    4  A    between atoms: C_8  and  C_12
    5  A    between atoms: C_16  and  N_18
    6  A    between atoms: C_23  and  C_24
    7  A    between atoms: C_24  and  N_25
    8  A    between atoms: C_32  and  C_33
                            x       y       z     vdW  Elec       q    Type
                         _______ _______ _______ _____ _____    ______ ____

>  <TORSDO>
F 8

$$$$
=
 OpenBabel07192307433D

 68 73  0  0  0  0  0  0  0  0999 V2000
    1.0850    9.5300   19.6190 N   0  0  0  0  0  0  0  0  0  0  0  0
    2.0650    8.9960   18.6840 C   0  0  0  0  0  0  0  0  0  0  0  0
    2.3280    7.6170   19.1940 C   0  0  0  0  0  0  0  0  0  0  0  0
    1.5660    7.3910   20.3330 C   0  0  0  0  0  0  0  0  0  0  0  0
    1.6150    6.2020   21.0370 C   0  0  0  0  0  0  0  0  0  0  0  0
    2.4680    5.1900   20.5690 C   0  0  0  0  0  0  0  0  0  0  0  0
    3.2430    5.4170   19.4080 C   0  0  0  0  0  0  0  0  0  0  0  0
    3.1830    6.6350   18.7020 C   0  0  0  0  0  0  0  0  0  0  0  0
    0.7750    8.5960   20.6150 C   0  0  0  0  0  0  0  0  0  0  0  0
    0.0300    8.6650   21.5750 O   0  0  0  0  0  0  0  0  0  0  0  0
    2.9770    9.6000   18.7220 H   0  0  0  0  0  0  0  0  0  0  0  0
    1.6370    8.9640   17.6750 H   0  0  0  0  0  0  0  0  0  0  0  0
    1.0050    6.0620   21.9260 H   0  0  0  0  0  0  0  0  0  0  0  0
    3.9060    4.6280   19.0500 H   0  0  0  0  0  0  0  0  0  0  0  0
   -1.1840   12.5180   20.1030 C   0  0  0  0  0  0  0  0  0  0  0  0
   -0.5110   13.4410   19.2880 C   0  0  0  0  0  0  0  0  0  0  0  0
    0.6520   13.1010   18.6000 C   0  0  0  0  0  0  0  0  0  0  0  0
    1.1810   11.8150   18.7030 C   0  0  0  0  0  0  0  0  0  0  0  0
    0.5650   10.8500   19.5020 C   0  0  0  0  0  0  0  0  0  0  0  0
   -0.6030   11.2280   20.1950 C   0  0  0  0  0  0  0  0  0  0  0  0
   -0.8870   14.4610   19.2000 H   0  0  0  0  0  0  0  0  0  0  0  0
    1.1570   13.8450   17.9870 H   0  0  0  0  0  0  0  0  0  0  0  0
    2.0890   11.6040   18.1490 H   0  0  0  0  0  0  0  0  0  0  0  0
   -1.1080   10.5100   20.8360 H   0  0  0  0  0  0  0  0  0  0  0  0
   -2.5360   12.8990   20.8810 C   0  0  0  0  0  0  0  0  0  0  0  0
   -3.0440   14.3690   20.7770 C   0  0  0  0  0  0  0  0  0  0  0  0
   -4.4080   13.9010   20.5770 O   0  0  0  0  0  0  0  0  0  0  0  0
   -3.8740   12.6220   20.1330 C   0  0  0  0  0  0  0  0  0  0  0  0
   -2.6980   14.9380   19.9060 H   0  0  0  0  0  0  0  0  0  0  0  0
   -2.9570   14.9940   21.6670 H   0  0  0  0  0  0  0  0  0  0  0  0
   -4.4720   11.7810   20.4950 H   0  0  0  0  0  0  0  0  0  0  0  0
   -3.8250   12.5820   19.0380 H   0  0  0  0  0  0  0  0  0  0  0  0
   -2.5690   12.2970   22.3010 C   0  0  0  0  0  0  0  0  0  0  0  0
   -3.4750   11.6940   22.4360 H   0  0  0  0  0  0  0  0  0  0  0  0
   -1.7370   11.5910   22.4270 H   0  0  0  0  0  0  0  0  0  0  0  0
   -3.5600   13.7450   24.1410 N   0  0  0  0  0  0  0  0  0  0  0  0
   -3.0700   14.6990   24.9800 C   0  0  0  0  0  0  0  0  0  0  0  0
   -1.7850   14.8480   24.7700 N   0  0  0  0  0  0  0  0  0  0  0  0
   -1.4230   13.9740   23.7740 N   0  0  0  0  0  0  0  0  0  0  0  0
   -2.4980   13.3200   23.3830 C   0  0  0  0  0  0  0  0  0  0  0  0
   -3.6660   15.2410   25.7040 H   0  0  0  0  0  0  0  0  0  0  0  0
   -4.9230   13.2920   24.0880 C   0  0  0  0  0  0  0  0  0  0  0  0
   -5.1550   12.7940   25.0320 H   0  0  0  0  0  0  0  0  0  0  0  0
   -5.0390   12.6030   23.2490 H   0  0  0  0  0  0  0  0  0  0  0  0
   -5.5900   14.1480   23.9480 H   0  0  0  0  0  0  0  0  0  0  0  0
    4.0090    6.8770   17.4680 C   0  0  0  0  0  0  0  0  0  0  0  0
    4.1940    5.7410   16.7400 F   0  0  0  0  0  0  0  0  0  0  0  0
    3.4690    7.7880   16.6130 F   0  0  0  0  0  0  0  0  0  0  0  0
    5.2580    7.3330   17.7650 F   0  0  0  0  0  0  0  0  0  0  0  0
    2.5840    3.8790   21.3240 C   0  0  0  0  0  0  0  0  0  0  0  0
    1.7730    3.8860   22.0650 H   0  0  0  0  0  0  0  0  0  0  0  0
    3.5220    3.8420   21.8930 H   0  0  0  0  0  0  0  0  0  0  0  0
    2.4660    2.6980   20.4600 N   0  0  0  0  0  0  0  0  0  0  0  0
    1.2460    2.6930   19.6380 C   0  0  0  0  0  0  0  0  0  0  0  0
    1.4920    2.9870   18.1590 C   0  0  0  0  0  0  0  0  0  0  0  0
    2.4700    1.9870   17.5440 C   0  0  0  0  0  0  0  0  0  0  0  0
    3.5100    1.5000   18.5510 C   0  0  0  0  0  0  0  0  0  0  0  0
    3.7020    2.5010   19.6880 C   0  0  0  0  0  0  0  0  0  0  0  0
    0.7960    1.6960   19.7240 H   0  0  0  0  0  0  0  0  0  0  0  0
    0.4860    3.3890   20.0170 H   0  0  0  0  0  0  0  0  0  0  0  0
    0.5460    2.9610   17.6070 H   0  0  0  0  0  0  0  0  0  0  0  0
    1.8910    4.0040   18.0500 H   0  0  0  0  0  0  0  0  0  0  0  0
    2.9630    2.4520   16.6840 H   0  0  0  0  0  0  0  0  0  0  0  0
    1.9220    1.1200   17.1530 H   0  0  0  0  0  0  0  0  0  0  0  0
    4.4640    1.3200   18.0410 H   0  0  0  0  0  0  0  0  0  0  0  0
    3.1960    0.5330   18.9640 H   0  0  0  0  0  0  0  0  0  0  0  0
    4.0580    3.4500   19.2660 H   0  0  0  0  0  0  0  0  0  0  0  0
    4.4860    2.1310   20.3580 H   0  0  0  0  0  0  0  0  0  0  0  0
  1  9  1  0  0  0  0
  2 11  1  0  0  0  0
  2  3  1  0  0  0  0
  2  1  1  0  0  0  0
  3  4  1  0  0  0  0
  4  9  1  0  0  0  0
  4  5  2  0  0  0  0
  5 13  1  0  0  0  0
  6  5  1  0  0  0  0
  6 50  1  0  0  0  0
  7  6  2  0  0  0  0
  8  3  2  0  0  0  0
  8  7  1  0  0  0  0
  9 10  2  0  0  0  0
 12  2  1  0  0  0  0
 14  7  1  0  0  0  0
 15 20  1  0  0  0  0
 15 25  1  0  0  0  0
 16 15  2  0  0  0  0
 17 18  2  0  0  0  0
 17 16  1  0  0  0  0
 18 19  1  0  0  0  0
 19  1  1  0  0  0  0
 19 20  2  0  0  0  0
 20 24  1  0  0  0  0
 21 16  1  0  0  0  0
 22 17  1  0  0  0  0
 23 18  1  0  0  0  0
 25 33  1  0  0  0  0
 26 25  1  0  0  0  0
 26 30  1  0  0  0  0
 27 26  1  0  0  0  0
 28 31  1  0  0  0  0
 28 27  1  0  0  0  0
 28 25  1  0  0  0  0
 29 26  1  0  0  0  0
 32 28  1  0  0  0  0
 33 35  1  0  0  0  0
 33 34  1  0  0  0  0
 33 40  1  0  0  0  0
 36 37  1  0  0  0  0
 37 41  1  0  0  0  0
 38 37  2  0  0  0  0
 39 38  1  0  0  0  0
 40 39  2  0  0  0  0
 40 36  1  0  0  0  0
 42 36  1  0  0  0  0
 42 43  1  0  0  0  0
 44 42  1  0  0  0  0
 45 42  1  0  0  0  0
 46 49  1  0  0  0  0
 46  8  1  0  0  0  0
 47 46  1  0  0  0  0
 48 46  1  0  0  0  0
 50 52  1  0  0  0  0
 50 51  1  0  0  0  0
 53 50  1  0  0  0  0
 54 59  1  0  0  0  0
 54 60  1  0  0  0  0
 54 53  1  0  0  0  0
 55 54  1  0  0  0  0
 56 55  1  0  0  0  0
 56 57  1  0  0  0  0
 57 66  1  0  0  0  0
 57 58  1  0  0  0  0
 58 68  1  0  0  0  0
 58 53  1  0  0  0  0
 61 55  1  0  0  0  0
 62 55  1  0  0  0  0
 63 56  1  0  0  0  0
 64 56  1  0  0  0  0
 65 57  1  0  0  0  0
 67 58  1  0  0  0  0
M  END
>  <MODEL>
12

>  <REMARK>
 VINA RESULT:    -7.730      3.554      5.100
 INTER + INTRA:         -12.283
 INTER:                 -11.996
 INTRA:                  -0.287
 UNBOUND:                -1.163
  Name = 
  8 active torsions:
  status: ('A' for Active; 'I' for Inactive)
    1  A    between atoms: C_1  and  N_2
    2  A    between atoms: C_6  and  C_7
    3  A    between atoms: C_7  and  C_8
    4  A    between atoms: C_8  and  C_12
    5  A    between atoms: C_16  and  N_18
    6  A    between atoms: C_23  and  C_24
    7  A    between atoms: C_24  and  N_25
    8  A    between atoms: C_32  and  C_33
                            x       y       z     vdW  Elec       q    Type
                         _______ _______ _______ _____ _____    ______ ____

>  <TORSDO>
F 8

$$$$
=
 OpenBabel07192307433D

 68 73  0  0  0  0  0  0  0  0999 V2000
    2.5250    8.5900   18.3750 N   0  0  0  0  0  0  0  0  0  0  0  0
    3.4140    8.1620   17.3050 C   0  0  0  0  0  0  0  0  0  0  0  0
    3.8010    6.7740   17.6990 C   0  0  0  0  0  0  0  0  0  0  0  0
    3.1890    6.4450   18.9010 C   0  0  0  0  0  0  0  0  0  0  0  0
    3.3760    5.2250   19.5230 C   0  0  0  0  0  0  0  0  0  0  0  0
    4.2170    4.2880   18.9010 C   0  0  0  0  0  0  0  0  0  0  0  0
    4.8400    4.6190   17.6750 C   0  0  0  0  0  0  0  0  0  0  0  0
    4.6390    5.8690   17.0550 C   0  0  0  0  0  0  0  0  0  0  0  0
    2.3780    7.5890   19.3430 C   0  0  0  0  0  0  0  0  0  0  0  0
    1.7480    7.5640   20.3830 O   0  0  0  0  0  0  0  0  0  0  0  0
    4.2940    8.8120   17.2750 H   0  0  0  0  0  0  0  0  0  0  0  0
    2.8740    8.1610   16.3510 H   0  0  0  0  0  0  0  0  0  0  0  0
    2.8810    5.0040   20.4650 H   0  0  0  0  0  0  0  0  0  0  0  0
    5.4950    3.8880   17.1990 H   0  0  0  0  0  0  0  0  0  0  0  0
   -0.0500   11.3180   18.8660 C   0  0  0  0  0  0  0  0  0  0  0  0
    0.7100   12.4190   18.4400 C   0  0  0  0  0  0  0  0  0  0  0  0
    2.0270   12.2770   18.0070 C   0  0  0  0  0  0  0  0  0  0  0  0
    2.6290   11.0190   17.9810 C   0  0  0  0  0  0  0  0  0  0  0  0
    1.9320    9.8840   18.3970 C   0  0  0  0  0  0  0  0  0  0  0  0
    0.6060   10.0610   18.8420 C   0  0  0  0  0  0  0  0  0  0  0  0
    0.2760   13.4190   18.4660 H   0  0  0  0  0  0  0  0  0  0  0  0
    2.5930   13.1530   17.6960 H   0  0  0  0  0  0  0  0  0  0  0  0
    3.6560   10.9660   17.6360 H   0  0  0  0  0  0  0  0  0  0  0  0
    0.0310    9.2050   19.1840 H   0  0  0  0  0  0  0  0  0  0  0  0
   -1.5740   11.4730   19.3460 C   0  0  0  0  0  0  0  0  0  0  0  0
   -1.8310   11.8650   20.8320 C   0  0  0  0  0  0  0  0  0  0  0  0
   -2.8540   12.8160   20.4220 O   0  0  0  0  0  0  0  0  0  0  0  0
   -2.2470   12.8570   19.1000 C   0  0  0  0  0  0  0  0  0  0  0  0
   -1.0080   12.3780   21.3450 H   0  0  0  0  0  0  0  0  0  0  0  0
   -2.2350   11.0960   21.4920 H   0  0  0  0  0  0  0  0  0  0  0  0
   -2.9970   12.9020   18.3060 H   0  0  0  0  0  0  0  0  0  0  0  0
   -1.5760   13.7200   19.0100 H   0  0  0  0  0  0  0  0  0  0  0  0
   -2.4620   10.3300   18.8100 C   0  0  0  0  0  0  0  0  0  0  0  0
   -1.9730    9.3630   18.9750 H   0  0  0  0  0  0  0  0  0  0  0  0
   -3.3950   10.2800   19.3870 H   0  0  0  0  0  0  0  0  0  0  0  0
   -3.9950   10.9220   16.8690 N   0  0  0  0  0  0  0  0  0  0  0  0
   -3.8940   10.8580   15.5130 C   0  0  0  0  0  0  0  0  0  0  0  0
   -2.7080   10.4070   15.1840 N   0  0  0  0  0  0  0  0  0  0  0  0
   -2.0160   10.1710   16.3460 N   0  0  0  0  0  0  0  0  0  0  0  0
   -2.7980   10.4670   17.3650 C   0  0  0  0  0  0  0  0  0  0  0  0
   -4.6820   11.1410   14.8270 H   0  0  0  0  0  0  0  0  0  0  0  0
   -5.1390   11.3850   17.6060 C   0  0  0  0  0  0  0  0  0  0  0  0
   -5.0360   12.4620   17.7570 H   0  0  0  0  0  0  0  0  0  0  0  0
   -5.1830   10.8630   18.5640 H   0  0  0  0  0  0  0  0  0  0  0  0
   -6.0510   11.1770   17.0390 H   0  0  0  0  0  0  0  0  0  0  0  0
    5.3040    6.2220   15.7520 C   0  0  0  0  0  0  0  0  0  0  0  0
    5.3830    5.1550   14.9080 F   0  0  0  0  0  0  0  0  0  0  0  0
    4.6680    7.2050   15.0580 F   0  0  0  0  0  0  0  0  0  0  0  0
    6.5850    6.6500   15.9260 F   0  0  0  0  0  0  0  0  0  0  0  0
    4.4840    2.9460   19.5590 C   0  0  0  0  0  0  0  0  0  0  0  0
    4.9550    3.1740   20.5250 H   0  0  0  0  0  0  0  0  0  0  0  0
    5.2210    2.3730   18.9830 H   0  0  0  0  0  0  0  0  0  0  0  0
    3.2690    2.1490   19.7660 N   0  0  0  0  0  0  0  0  0  0  0  0
    2.6130    2.4060   21.0570 C   0  0  0  0  0  0  0  0  0  0  0  0
    1.3210    3.2150   20.9470 C   0  0  0  0  0  0  0  0  0  0  0  0
    0.3040    2.5250   20.0390 C   0  0  0  0  0  0  0  0  0  0  0  0
    0.9720    1.7380   18.9130 C   0  0  0  0  0  0  0  0  0  0  0  0
    2.3700    2.2720   18.6090 C   0  0  0  0  0  0  0  0  0  0  0  0
    2.3760    1.4330   21.5050 H   0  0  0  0  0  0  0  0  0  0  0  0
    3.2810    2.9010   21.7720 H   0  0  0  0  0  0  0  0  0  0  0  0
    0.8820    3.3630   21.9400 H   0  0  0  0  0  0  0  0  0  0  0  0
    1.5470    4.2130   20.5520 H   0  0  0  0  0  0  0  0  0  0  0  0
   -0.3740    3.2790   19.6240 H   0  0  0  0  0  0  0  0  0  0  0  0
   -0.3210    1.8410   20.6270 H   0  0  0  0  0  0  0  0  0  0  0  0
    0.3480    1.7760   18.0120 H   0  0  0  0  0  0  0  0  0  0  0  0
    1.0390    0.6790   19.1960 H   0  0  0  0  0  0  0  0  0  0  0  0
    2.2850    3.3180   18.2860 H   0  0  0  0  0  0  0  0  0  0  0  0
    2.7910    1.7070   17.7680 H   0  0  0  0  0  0  0  0  0  0  0  0
  1 19  1  0  0  0  0
  1  9  1  0  0  0  0
  2  3  1  0  0  0  0
  2  1  1  0  0  0  0
  3  4  1  0  0  0  0
  4  9  1  0  0  0  0
  4  5  2  0  0  0  0
  5 13  1  0  0  0  0
  6  5  1  0  0  0  0
  6 50  1  0  0  0  0
  7  6  2  0  0  0  0
  8  7  1  0  0  0  0
  8  3  2  0  0  0  0
  9 10  2  0  0  0  0
 11  2  1  0  0  0  0
 12  2  1  0  0  0  0
 14  7  1  0  0  0  0
 15 25  1  0  0  0  0
 16 21  1  0  0  0  0
 16 15  2  0  0  0  0
 17 16  1  0  0  0  0
 18 17  2  0  0  0  0
 18 19  1  0  0  0  0
 19 20  2  0  0  0  0
 20 15  1  0  0  0  0
 20 24  1  0  0  0  0
 22 17  1  0  0  0  0
 23 18  1  0  0  0  0
 25 26  1  0  0  0  0
 26 29  1  0  0  0  0
 26 30  1  0  0  0  0
 27 26  1  0  0  0  0
 28 25  1  0  0  0  0
 28 27  1  0  0  0  0
 31 28  1  0  0  0  0
 32 28  1  0  0  0  0
 33 34  1  0  0  0  0
 33 25  1  0  0  0  0
 33 35  1  0  0  0  0
 36 40  1  0  0  0  0
 36 42  1  0  0  0  0
 37 36  1  0  0  0  0
 38 37  2  0  0  0  0
 38 39  1  0  0  0  0
 39 40  2  0  0  0  0
 40 33  1  0  0  0  0
 41 37  1  0  0  0  0
 42 43  1  0  0  0  0
 42 44  1  0  0  0  0
 45 42  1  0  0  0  0
 46 49  1  0  0  0  0
 46  8  1  0  0  0  0
 47 46  1  0  0  0  0
 48 46  1  0  0  0  0
 50 53  1  0  0  0  0
 50 51  1  0  0  0  0
 52 50  1  0  0  0  0
 53 54  1  0  0  0  0
 54 59  1  0  0  0  0
 54 60  1  0  0  0  0
 55 54  1  0  0  0  0
 55 61  1  0  0  0  0
 56 64  1  0  0  0  0
 56 55  1  0  0  0  0
 57 66  1  0  0  0  0
 57 56  1  0  0  0  0
 58 57  1  0  0  0  0
 58 53  1  0  0  0  0
 62 55  1  0  0  0  0
 63 56  1  0  0  0  0
 65 57  1  0  0  0  0
 67 58  1  0  0  0  0
 68 58  1  0  0  0  0
M  END
>  <MODEL>
13

>  <REMARK>
 VINA RESULT:    -7.547      2.879      4.384
 INTER + INTRA:         -12.019
 INTER:                 -11.456
 INTRA:                  -0.562
 UNBOUND:                -1.163
  Name = 
  8 active torsions:
  status: ('A' for Active; 'I' for Inactive)
    1  A    between atoms: C_1  and  N_2
    2  A    between atoms: C_6  and  C_7
    3  A    between atoms: C_7  and  C_8
    4  A    between atoms: C_8  and  C_12
    5  A    between atoms: C_16  and  N_18
    6  A    between atoms: C_23  and  C_24
    7  A    between atoms: C_24  and  N_25
    8  A    between atoms: C_32  and  C_33
                            x       y       z     vdW  Elec       q    Type
                         _______ _______ _______ _____ _____    ______ ____

>  <TORSDO>
F 8

$$$$
=
 OpenBabel07192307433D

 68 73  0  0  0  0  0  0  0  0999 V2000
    2.2920    8.8880   18.3890 N   0  0  0  0  0  0  0  0  0  0  0  0
    3.2300    8.4730   17.3560 C   0  0  0  0  0  0  0  0  0  0  0  0
    3.6450    7.1030   17.7830 C   0  0  0  0  0  0  0  0  0  0  0  0
    3.0020    6.7710   18.9680 C   0  0  0  0  0  0  0  0  0  0  0  0
    3.2040    5.5650   19.6130 C   0  0  0  0  0  0  0  0  0  0  0  0
    4.0930    4.6460   19.0330 C   0  0  0  0  0  0  0  0  0  0  0  0
    4.7480    4.9800   17.8250 C   0  0  0  0  0  0  0  0  0  0  0  0
    4.5320    6.2150   17.1810 C   0  0  0  0  0  0  0  0  0  0  0  0
    2.1430    7.8950   19.3650 C   0  0  0  0  0  0  0  0  0  0  0  0
    1.4780    7.8650   20.3840 O   0  0  0  0  0  0  0  0  0  0  0  0
    4.0910    9.1490   17.3470 H   0  0  0  0  0  0  0  0  0  0  0  0
    2.7230    8.4430   16.3850 H   0  0  0  0  0  0  0  0  0  0  0  0
    2.6840    5.3410   20.5410 H   0  0  0  0  0  0  0  0  0  0  0  0
    5.4400    4.2630   17.3810 H   0  0  0  0  0  0  0  0  0  0  0  0
   -0.4280   11.5140   18.4950 C   0  0  0  0  0  0  0  0  0  0  0  0
    0.3650   12.6610   18.3280 C   0  0  0  0  0  0  0  0  0  0  0  0
    1.7490   12.5810   18.1870 C   0  0  0  0  0  0  0  0  0  0  0  0
    2.3880   11.3420   18.2040 C   0  0  0  0  0  0  0  0  0  0  0  0
    1.6600   10.1630   18.3730 C   0  0  0  0  0  0  0  0  0  0  0  0
    0.2640   10.2770   18.5260 C   0  0  0  0  0  0  0  0  0  0  0  0
   -0.1020   13.6460   18.3290 H   0  0  0  0  0  0  0  0  0  0  0  0
    2.3350   13.4900   18.0720 H   0  0  0  0  0  0  0  0  0  0  0  0
    3.4680   11.3370   18.0920 H   0  0  0  0  0  0  0  0  0  0  0  0
   -0.3390    9.3840   18.6700 H   0  0  0  0  0  0  0  0  0  0  0  0
   -2.0250   11.6000   18.6370 C   0  0  0  0  0  0  0  0  0  0  0  0
   -2.8740   11.5540   17.3310 C   0  0  0  0  0  0  0  0  0  0  0  0
   -3.8130   10.6330   17.9530 O   0  0  0  0  0  0  0  0  0  0  0  0
   -2.7760   10.2600   18.9040 C   0  0  0  0  0  0  0  0  0  0  0  0
   -2.3950   11.0900   16.4600 H   0  0  0  0  0  0  0  0  0  0  0  0
   -3.3610   12.4780   17.0160 H   0  0  0  0  0  0  0  0  0  0  0  0
   -3.1760   10.1160   19.9110 H   0  0  0  0  0  0  0  0  0  0  0  0
   -2.2700    9.3420   18.5830 H   0  0  0  0  0  0  0  0  0  0  0  0
   -2.4520   12.6780   19.6550 C   0  0  0  0  0  0  0  0  0  0  0  0
   -1.9330   13.6220   19.4470 H   0  0  0  0  0  0  0  0  0  0  0  0
   -3.5190   12.9070   19.5320 H   0  0  0  0  0  0  0  0  0  0  0  0
   -3.1310   12.3500   22.0840 N   0  0  0  0  0  0  0  0  0  0  0  0
   -2.4900   11.9380   23.2120 C   0  0  0  0  0  0  0  0  0  0  0  0
   -1.2510   11.6260   22.9210 N   0  0  0  0  0  0  0  0  0  0  0  0
   -1.0750   11.8350   21.5760 N   0  0  0  0  0  0  0  0  0  0  0  0
   -2.2050   12.2890   21.0720 C   0  0  0  0  0  0  0  0  0  0  0  0
   -2.9500   11.8830   24.1910 H   0  0  0  0  0  0  0  0  0  0  0  0
   -4.5080   12.7580   22.0000 C   0  0  0  0  0  0  0  0  0  0  0  0
   -4.7240   13.0200   20.9620 H   0  0  0  0  0  0  0  0  0  0  0  0
   -4.6670   13.6150   22.6570 H   0  0  0  0  0  0  0  0  0  0  0  0
   -5.1550   11.9350   22.3170 H   0  0  0  0  0  0  0  0  0  0  0  0
    5.2290    6.5710   15.8960 C   0  0  0  0  0  0  0  0  0  0  0  0
    5.6220    5.4680   15.2000 F   0  0  0  0  0  0  0  0  0  0  0  0
    4.4680    7.3040   15.0400 F   0  0  0  0  0  0  0  0  0  0  0  0
    6.3630    7.2950   16.1090 F   0  0  0  0  0  0  0  0  0  0  0  0
    4.3770    3.3220   19.7190 C   0  0  0  0  0  0  0  0  0  0  0  0
    4.7150    3.5750   20.7330 H   0  0  0  0  0  0  0  0  0  0  0  0
    5.2160    2.8070   19.2320 H   0  0  0  0  0  0  0  0  0  0  0  0
    3.2070    2.4390   19.7830 N   0  0  0  0  0  0  0  0  0  0  0  0
    2.4290    2.5860   21.0230 C   0  0  0  0  0  0  0  0  0  0  0  0
    1.0990    3.3140   20.8390 C   0  0  0  0  0  0  0  0  0  0  0  0
    0.2110    2.6080   19.8150 C   0  0  0  0  0  0  0  0  0  0  0  0
    1.0230    1.9250   18.7170 C   0  0  0  0  0  0  0  0  0  0  0  0
    2.4010    2.5620   18.5590 C   0  0  0  0  0  0  0  0  0  0  0  0
    2.2240    1.5780   21.4040 H   0  0  0  0  0  0  0  0  0  0  0  0
    3.0010    3.0860   21.8150 H   0  0  0  0  0  0  0  0  0  0  0  0
    0.5700    3.3830   21.7960 H   0  0  0  0  0  0  0  0  0  0  0  0
    1.2880    4.3440   20.5110 H   0  0  0  0  0  0  0  0  0  0  0  0
   -0.4800    3.3370   19.3780 H   0  0  0  0  0  0  0  0  0  0  0  0
   -0.4120    1.8560   20.3150 H   0  0  0  0  0  0  0  0  0  0  0  0
    0.4750    1.9690   17.7680 H   0  0  0  0  0  0  0  0  0  0  0  0
    1.1380    0.8590   18.9560 H   0  0  0  0  0  0  0  0  0  0  0  0
    2.2720    3.6160   18.2780 H   0  0  0  0  0  0  0  0  0  0  0  0
    2.9280    2.0690   17.7340 H   0  0  0  0  0  0  0  0  0  0  0  0
  1  9  1  0  0  0  0
  2  3  1  0  0  0  0
  2  1  1  0  0  0  0
  3  4  1  0  0  0  0
  4  9  1  0  0  0  0
  4  5  2  0  0  0  0
  5 13  1  0  0  0  0
  6  5  1  0  0  0  0
  6 50  1  0  0  0  0
  7  6  2  0  0  0  0
  8  3  2  0  0  0  0
  8  7  1  0  0  0  0
  9 10  2  0  0  0  0
 11  2  1  0  0  0  0
 12  2  1  0  0  0  0
 14  7  1  0  0  0  0
 15 20  1  0  0  0  0
 15 25  1  0  0  0  0
 16 21  1  0  0  0  0
 16 15  2  0  0  0  0
 17 18  2  0  0  0  0
 17 16  1  0  0  0  0
 18 19  1  0  0  0  0
 19  1  1  0  0  0  0
 19 20  2  0  0  0  0
 20 24  1  0  0  0  0
 22 17  1  0  0  0  0
 23 18  1  0  0  0  0
 25 28  1  0  0  0  0
 25 33  1  0  0  0  0
 26 27  1  0  0  0  0
 26 25  1  0  0  0  0
 27 28  1  0  0  0  0
 28 31  1  0  0  0  0
 29 26  1  0  0  0  0
 30 26  1  0  0  0  0
 32 28  1  0  0  0  0
 33 40  1  0  0  0  0
 34 33  1  0  0  0  0
 35 33  1  0  0  0  0
 36 37  1  0  0  0  0
 37 41  1  0  0  0  0
 38 37  2  0  0  0  0
 39 38  1  0  0  0  0
 40 39  2  0  0  0  0
 40 36  1  0  0  0  0
 42 36  1  0  0  0  0
 42 45  1  0  0  0  0
 42 44  1  0  0  0  0
 43 42  1  0  0  0  0
 46 49  1  0  0  0  0
 46  8  1  0  0  0  0
 47 46  1  0  0  0  0
 48 46  1  0  0  0  0
 50 53  1  0  0  0  0
 50 51  1  0  0  0  0
 52 50  1  0  0  0  0
 53 54  1  0  0  0  0
 54 59  1  0  0  0  0
 54 60  1  0  0  0  0
 55 54  1  0  0  0  0
 55 61  1  0  0  0  0
 56 64  1  0  0  0  0
 56 55  1  0  0  0  0
 57 66  1  0  0  0  0
 57 56  1  0  0  0  0
 58 57  1  0  0  0  0
 58 53  1  0  0  0  0
 62 55  1  0  0  0  0
 63 56  1  0  0  0  0
 65 57  1  0  0  0  0
 67 58  1  0  0  0  0
 68 58  1  0  0  0  0
M  END
>  <MODEL>
14

>  <REMARK>
 VINA RESULT:    -7.472      3.273      4.961
 INTER + INTRA:         -11.912
 INTER:                 -11.100
 INTRA:                  -0.812
 UNBOUND:                -1.163
  Name = 
  8 active torsions:
  status: ('A' for Active; 'I' for Inactive)
    1  A    between atoms: C_1  and  N_2
    2  A    between atoms: C_6  and  C_7
    3  A    between atoms: C_7  and  C_8
    4  A    between atoms: C_8  and  C_12
    5  A    between atoms: C_16  and  N_18
    6  A    between atoms: C_23  and  C_24
    7  A    between atoms: C_24  and  N_25
    8  A    between atoms: C_32  and  C_33
                            x       y       z     vdW  Elec       q    Type
                         _______ _______ _______ _____ _____    ______ ____

>  <TORSDO>
F 8

$$$$
=
 OpenBabel07192307433D

 68 73  0  0  0  0  0  0  0  0999 V2000
    0.6040    9.3790   18.4660 N   0  0  0  0  0  0  0  0  0  0  0  0
   -0.4980    9.5470   17.5310 C   0  0  0  0  0  0  0  0  0  0  0  0
   -1.4000   10.5220   18.2160 C   0  0  0  0  0  0  0  0  0  0  0  0
   -0.8580   10.8700   19.4460 C   0  0  0  0  0  0  0  0  0  0  0  0
   -1.4820   11.7460   20.3130 C   0  0  0  0  0  0  0  0  0  0  0  0
   -2.7100   12.3040   19.9220 C   0  0  0  0  0  0  0  0  0  0  0  0
   -3.2640   11.9520   18.6680 C   0  0  0  0  0  0  0  0  0  0  0  0
   -2.6150   11.0560   17.7960 C   0  0  0  0  0  0  0  0  0  0  0  0
    0.4120   10.1510   19.6190 C   0  0  0  0  0  0  0  0  0  0  0  0
    1.0840   10.2690   20.6270 O   0  0  0  0  0  0  0  0  0  0  0  0
   -1.0090    8.5900   17.3860 H   0  0  0  0  0  0  0  0  0  0  0  0
   -0.1240    9.9590   16.5860 H   0  0  0  0  0  0  0  0  0  0  0  0
   -1.0280   11.9940   21.2690 H   0  0  0  0  0  0  0  0  0  0  0  0
   -4.2200   12.3860   18.3710 H   0  0  0  0  0  0  0  0  0  0  0  0
    2.7210    6.2440   18.4100 C   0  0  0  0  0  0  0  0  0  0  0  0
    3.8390    6.7450   17.7250 C   0  0  0  0  0  0  0  0  0  0  0  0
    3.9020    8.0680   17.2910 C   0  0  0  0  0  0  0  0  0  0  0  0
    2.8410    8.9400   17.5340 C   0  0  0  0  0  0  0  0  0  0  0  0
    1.6960    8.5050   18.2040 C   0  0  0  0  0  0  0  0  0  0  0  0
    1.6570    7.1580   18.6190 C   0  0  0  0  0  0  0  0  0  0  0  0
    4.6780    6.0850   17.5020 H   0  0  0  0  0  0  0  0  0  0  0  0
    4.7780    8.4200   16.7510 H   0  0  0  0  0  0  0  0  0  0  0  0
    2.9410    9.9580   17.1730 H   0  0  0  0  0  0  0  0  0  0  0  0
    0.7800    6.7760   19.1350 H   0  0  0  0  0  0  0  0  0  0  0  0
    2.6530    4.7270   18.9300 C   0  0  0  0  0  0  0  0  0  0  0  0
    1.5760    4.3730   19.9990 C   0  0  0  0  0  0  0  0  0  0  0  0
    1.2460    3.1480   19.2860 O   0  0  0  0  0  0  0  0  0  0  0  0
    1.8090    3.7330   18.0780 C   0  0  0  0  0  0  0  0  0  0  0  0
    0.7070    5.0400   20.0470 H   0  0  0  0  0  0  0  0  0  0  0  0
    1.9230    4.1700   21.0140 H   0  0  0  0  0  0  0  0  0  0  0  0
    2.3660    2.9980   17.4880 H   0  0  0  0  0  0  0  0  0  0  0  0
    1.0190    4.1690   17.4550 H   0  0  0  0  0  0  0  0  0  0  0  0
    4.0590    4.1540   19.2060 C   0  0  0  0  0  0  0  0  0  0  0  0
    4.5650    4.7480   19.9760 H   0  0  0  0  0  0  0  0  0  0  0  0
    3.9750    3.1460   19.6340 H   0  0  0  0  0  0  0  0  0  0  0  0
    6.1870    4.6160   17.8920 N   0  0  0  0  0  0  0  0  0  0  0  0
    6.6020    4.3660   16.6200 C   0  0  0  0  0  0  0  0  0  0  0  0
    5.6660    3.7140   15.9750 N   0  0  0  0  0  0  0  0  0  0  0  0
    4.6160    3.5300   16.8400 N   0  0  0  0  0  0  0  0  0  0  0  0
    4.9230    4.0890   17.9940 C   0  0  0  0  0  0  0  0  0  0  0  0
    7.5620    4.6680   16.2190 H   0  0  0  0  0  0  0  0  0  0  0  0
    6.9470    5.2940   18.9060 C   0  0  0  0  0  0  0  0  0  0  0  0
    6.7100    6.3590   18.8560 H   0  0  0  0  0  0  0  0  0  0  0  0
    8.0110    5.1260   18.7280 H   0  0  0  0  0  0  0  0  0  0  0  0
    6.6800    4.9010   19.8910 H   0  0  0  0  0  0  0  0  0  0  0  0
   -3.2050   10.6810   16.4630 C   0  0  0  0  0  0  0  0  0  0  0  0
   -2.5050   11.2110   15.4220 F   0  0  0  0  0  0  0  0  0  0  0  0
   -3.2530    9.3400   16.2400 F   0  0  0  0  0  0  0  0  0  0  0  0
   -4.4810   11.1340   16.3190 F   0  0  0  0  0  0  0  0  0  0  0  0
   -3.4540   13.2440   20.8520 C   0  0  0  0  0  0  0  0  0  0  0  0
   -4.5170   12.9890   20.7500 H   0  0  0  0  0  0  0  0  0  0  0  0
   -3.3510   14.2830   20.5130 H   0  0  0  0  0  0  0  0  0  0  0  0
   -3.0380   13.1230   22.2540 N   0  0  0  0  0  0  0  0  0  0  0  0
   -2.2170   14.2500   22.7210 C   0  0  0  0  0  0  0  0  0  0  0  0
   -2.9500   15.2040   23.6640 C   0  0  0  0  0  0  0  0  0  0  0  0
   -3.4800   14.4740   24.8970 C   0  0  0  0  0  0  0  0  0  0  0  0
   -3.8740   13.0300   24.5910 C   0  0  0  0  0  0  0  0  0  0  0  0
   -4.1980   12.8390   23.1120 C   0  0  0  0  0  0  0  0  0  0  0  0
   -1.3540   13.8300   23.2530 H   0  0  0  0  0  0  0  0  0  0  0  0
   -1.7930   14.8290   21.8900 H   0  0  0  0  0  0  0  0  0  0  0  0
   -2.2810   16.0130   23.9780 H   0  0  0  0  0  0  0  0  0  0  0  0
   -3.7840   15.6760   23.1300 H   0  0  0  0  0  0  0  0  0  0  0  0
   -4.3390   15.0250   25.2960 H   0  0  0  0  0  0  0  0  0  0  0  0
   -2.7210   14.4740   25.6880 H   0  0  0  0  0  0  0  0  0  0  0  0
   -4.7350   12.7420   25.2070 H   0  0  0  0  0  0  0  0  0  0  0  0
   -3.0540   12.3580   24.8760 H   0  0  0  0  0  0  0  0  0  0  0  0
   -5.0480   13.4840   22.8500 H   0  0  0  0  0  0  0  0  0  0  0  0
   -4.5170   11.8020   22.9490 H   0  0  0  0  0  0  0  0  0  0  0  0
  1  9  1  0  0  0  0
  2  3  1  0  0  0  0
  2  1  1  0  0  0  0
  3  4  1  0  0  0  0
  4  9  1  0  0  0  0
  4  5  2  0  0  0  0
  5 13  1  0  0  0  0
  6  5  1  0  0  0  0
  6 50  1  0  0  0  0
  7  6  2  0  0  0  0
  8  3  2  0  0  0  0
  8  7  1  0  0  0  0
  9 10  2  0  0  0  0
 11  2  1  0  0  0  0
 12  2  1  0  0  0  0
 14  7  1  0  0  0  0
 15 20  1  0  0  0  0
 15 25  1  0  0  0  0
 16 15  2  0  0  0  0
 17 18  2  0  0  0  0
 17 16  1  0  0  0  0
 18 19  1  0  0  0  0
 19  1  1  0  0  0  0
 19 20  2  0  0  0  0
 20 24  1  0  0  0  0
 21 16  1  0  0  0  0
 22 17  1  0  0  0  0
 23 18  1  0  0  0  0
 25 33  1  0  0  0  0
 25 26  1  0  0  0  0
 26 29  1  0  0  0  0
 26 30  1  0  0  0  0
 27 26  1  0  0  0  0
 28 25  1  0  0  0  0
 28 27  1  0  0  0  0
 31 28  1  0  0  0  0
 32 28  1  0  0  0  0
 33 35  1  0  0  0  0
 33 34  1  0  0  0  0
 36 40  1  0  0  0  0
 36 42  1  0  0  0  0
 37 36  1  0  0  0  0
 38 37  2  0  0  0  0
 38 39  1  0  0  0  0
 39 40  2  0  0  0  0
 40 33  1  0  0  0  0
 41 37  1  0  0  0  0
 42 45  1  0  0  0  0
 43 42  1  0  0  0  0
 44 42  1  0  0  0  0
 46  8  1  0  0  0  0
 47 46  1  0  0  0  0
 48 46  1  0  0  0  0
 49 46  1  0  0  0  0
 50 53  1  0  0  0  0
 51 50  1  0  0  0  0
 52 50  1  0  0  0  0
 53 54  1  0  0  0  0
 53 58  1  0  0  0  0
 54 59  1  0  0  0  0
 54 55  1  0  0  0  0
 55 61  1  0  0  0  0
 55 56  1  0  0  0  0
 56 63  1  0  0  0  0
 56 64  1  0  0  0  0
 57 66  1  0  0  0  0
 57 56  1  0  0  0  0
 57 65  1  0  0  0  0
 58 57  1  0  0  0  0
 60 54  1  0  0  0  0
 62 55  1  0  0  0  0
 67 58  1  0  0  0  0
 68 58  1  0  0  0  0
M  END
>  <MODEL>
15

>  <REMARK>
 VINA RESULT:    -7.471      3.632      9.991
 INTER + INTRA:         -11.909
 INTER:                 -11.724
 INTRA:                  -0.185
 UNBOUND:                -1.163
  Name = 
  8 active torsions:
  status: ('A' for Active; 'I' for Inactive)
    1  A    between atoms: C_1  and  N_2
    2  A    between atoms: C_6  and  C_7
    3  A    between atoms: C_7  and  C_8
    4  A    between atoms: C_8  and  C_12
    5  A    between atoms: C_16  and  N_18
    6  A    between atoms: C_23  and  C_24
    7  A    between atoms: C_24  and  N_25
    8  A    between atoms: C_32  and  C_33
                            x       y       z     vdW  Elec       q    Type
                         _______ _______ _______ _____ _____    ______ ____

>  <TORSDO>
F 8

$$$$
=
 OpenBabel07192307433D

 68 73  0  0  0  0  0  0  0  0999 V2000
    1.5630    8.9620   19.2430 N   0  0  0  0  0  0  0  0  0  0  0  0
    1.1740   10.2350   18.6530 C   0  0  0  0  0  0  0  0  0  0  0  0
    0.3610   10.8890   19.7220 C   0  0  0  0  0  0  0  0  0  0  0  0
    0.2860   10.0500   20.8260 C   0  0  0  0  0  0  0  0  0  0  0  0
   -0.4180   10.3830   21.9670 C   0  0  0  0  0  0  0  0  0  0  0  0
   -1.0760   11.6230   22.0020 C   0  0  0  0  0  0  0  0  0  0  0  0
   -0.9990   12.4810   20.8790 C   0  0  0  0  0  0  0  0  0  0  0  0
   -0.2770   12.1250   19.7220 C   0  0  0  0  0  0  0  0  0  0  0  0
    1.0420    8.8240   20.5350 C   0  0  0  0  0  0  0  0  0  0  0  0
    1.1210    7.9130   21.3390 O   0  0  0  0  0  0  0  0  0  0  0  0
    0.5640   10.0570   17.7620 H   0  0  0  0  0  0  0  0  0  0  0  0
    2.0680   10.8280   18.4250 H   0  0  0  0  0  0  0  0  0  0  0  0
   -0.4560    9.6990   22.8120 H   0  0  0  0  0  0  0  0  0  0  0  0
   -1.5140   13.4420   20.9100 H   0  0  0  0  0  0  0  0  0  0  0  0
    3.1910    5.6730   18.3260 C   0  0  0  0  0  0  0  0  0  0  0  0
    3.9050    6.0890   17.1910 C   0  0  0  0  0  0  0  0  0  0  0  0
    3.8560    7.4050   16.7350 C   0  0  0  0  0  0  0  0  0  0  0  0
    3.0900    8.3560   17.4080 C   0  0  0  0  0  0  0  0  0  0  0  0
    2.3490    8.0070   18.5380 C   0  0  0  0  0  0  0  0  0  0  0  0
    2.4090    6.6660   18.9680 C   0  0  0  0  0  0  0  0  0  0  0  0
    4.5000    5.3660   16.6310 H   0  0  0  0  0  0  0  0  0  0  0  0
    4.4120    7.6910   15.8440 H   0  0  0  0  0  0  0  0  0  0  0  0
    3.0850    9.3650   17.0090 H   0  0  0  0  0  0  0  0  0  0  0  0
    1.8400    6.3510   19.8390 H   0  0  0  0  0  0  0  0  0  0  0  0
    3.2600    4.1630   18.8670 C   0  0  0  0  0  0  0  0  0  0  0  0
    2.7560    3.8870   20.3150 C   0  0  0  0  0  0  0  0  0  0  0  0
    2.0590    2.6920   19.8630 O   0  0  0  0  0  0  0  0  0  0  0  0
    2.0580    3.2380   18.5130 C   0  0  0  0  0  0  0  0  0  0  0  0
    2.0490    4.6160   20.7270 H   0  0  0  0  0  0  0  0  0  0  0  0
    3.5070    3.6540   21.0730 H   0  0  0  0  0  0  0  0  0  0  0  0
    2.2390    2.4660   17.7590 H   0  0  0  0  0  0  0  0  0  0  0  0
    1.1040    3.7340   18.2970 H   0  0  0  0  0  0  0  0  0  0  0  0
    4.5980    3.4860   18.5010 C   0  0  0  0  0  0  0  0  0  0  0  0
    4.7750    2.6220   19.1540 H   0  0  0  0  0  0  0  0  0  0  0  0
    4.5410    3.0690   17.4870 H   0  0  0  0  0  0  0  0  0  0  0  0
    6.6660    4.6310   17.5630 N   0  0  0  0  0  0  0  0  0  0  0  0
    7.5880    5.5020   18.0580 C   0  0  0  0  0  0  0  0  0  0  0  0
    7.2790    5.8090   19.2950 N   0  0  0  0  0  0  0  0  0  0  0  0
    6.1320    5.1280   19.6180 N   0  0  0  0  0  0  0  0  0  0  0  0
    5.7700    4.4030   18.5780 C   0  0  0  0  0  0  0  0  0  0  0  0
    8.4390    5.8730   17.5020 H   0  0  0  0  0  0  0  0  0  0  0  0
    6.6570    4.0810   16.2350 C   0  0  0  0  0  0  0  0  0  0  0  0
    7.5790    4.3850   15.7330 H   0  0  0  0  0  0  0  0  0  0  0  0
    5.7830    4.4570   15.6990 H   0  0  0  0  0  0  0  0  0  0  0  0
    6.6060    2.9900   16.2890 H   0  0  0  0  0  0  0  0  0  0  0  0
   -0.1970   13.0370   18.5280 C   0  0  0  0  0  0  0  0  0  0  0  0
    1.0820   13.2000   18.0880 F   0  0  0  0  0  0  0  0  0  0  0  0
   -0.9110   12.6020   17.4540 F   0  0  0  0  0  0  0  0  0  0  0  0
   -0.6550   14.2900   18.8040 F   0  0  0  0  0  0  0  0  0  0  0  0
   -1.8910   12.0220   23.2170 C   0  0  0  0  0  0  0  0  0  0  0  0
   -1.1630   12.2530   24.0060 H   0  0  0  0  0  0  0  0  0  0  0  0
   -2.4830   11.1730   23.5820 H   0  0  0  0  0  0  0  0  0  0  0  0
   -2.7590   13.1820   22.9790 N   0  0  0  0  0  0  0  0  0  0  0  0
   -4.1430   12.8170   22.6400 C   0  0  0  0  0  0  0  0  0  0  0  0
   -5.1470   13.0750   23.7630 C   0  0  0  0  0  0  0  0  0  0  0  0
   -5.1450   14.5420   24.1900 C   0  0  0  0  0  0  0  0  0  0  0  0
   -3.7660   15.1850   24.0490 C   0  0  0  0  0  0  0  0  0  0  0  0
   -2.6540   14.1400   24.0890 C   0  0  0  0  0  0  0  0  0  0  0  0
   -4.4360   13.4160   21.7680 H   0  0  0  0  0  0  0  0  0  0  0  0
   -4.2310   11.7720   22.3180 H   0  0  0  0  0  0  0  0  0  0  0  0
   -6.1550   12.7890   23.4420 H   0  0  0  0  0  0  0  0  0  0  0  0
   -4.9010   12.4420   24.6250 H   0  0  0  0  0  0  0  0  0  0  0  0
   -5.4920   14.6130   25.2270 H   0  0  0  0  0  0  0  0  0  0  0  0
   -5.8640   15.1090   23.5860 H   0  0  0  0  0  0  0  0  0  0  0  0
   -3.6190   15.9250   24.8440 H   0  0  0  0  0  0  0  0  0  0  0  0
   -3.7150   15.7370   23.1010 H   0  0  0  0  0  0  0  0  0  0  0  0
   -2.6890   13.6250   25.0580 H   0  0  0  0  0  0  0  0  0  0  0  0
   -1.6850   14.6510   24.0290 H   0  0  0  0  0  0  0  0  0  0  0  0
  1  9  1  0  0  0  0
  2  1  1  0  0  0  0
  2  3  1  0  0  0  0
  3  8  2  0  0  0  0
  3  4  1  0  0  0  0
  4  5  2  0  0  0  0
  5  6  1  0  0  0  0
  5 13  1  0  0  0  0
  6 50  1  0  0  0  0
  7 14  1  0  0  0  0
  7  6  2  0  0  0  0
  8  7  1  0  0  0  0
  9  4  1  0  0  0  0
  9 10  2  0  0  0  0
 11  2  1  0  0  0  0
 12  2  1  0  0  0  0
 15 25  1  0  0  0  0
 15 20  1  0  0  0  0
 16 15  2  0  0  0  0
 17 16  1  0  0  0  0
 17 18  2  0  0  0  0
 18 19  1  0  0  0  0
 19 20  2  0  0  0  0
 19  1  1  0  0  0  0
 20 24  1  0  0  0  0
 21 16  1  0  0  0  0
 22 17  1  0  0  0  0
 23 18  1  0  0  0  0
 25 26  1  0  0  0  0
 26 29  1  0  0  0  0
 26 30  1  0  0  0  0
 27 26  1  0  0  0  0
 28 25  1  0  0  0  0
 28 27  1  0  0  0  0
 31 28  1  0  0  0  0
 32 28  1  0  0  0  0
 33 40  1  0  0  0  0
 33 25  1  0  0  0  0
 33 34  1  0  0  0  0
 35 33  1  0  0  0  0
 36 37  1  0  0  0  0
 36 40  1  0  0  0  0
 37 38  2  0  0  0  0
 38 39  1  0  0  0  0
 40 39  2  0  0  0  0
 41 37  1  0  0  0  0
 42 45  1  0  0  0  0
 42 36  1  0  0  0  0
 43 42  1  0  0  0  0
 44 42  1  0  0  0  0
 46 49  1  0  0  0  0
 46  8  1  0  0  0  0
 47 46  1  0  0  0  0
 48 46  1  0  0  0  0
 50 52  1  0  0  0  0
 50 51  1  0  0  0  0
 53 50  1  0  0  0  0
 53 58  1  0  0  0  0
 54 53  1  0  0  0  0
 54 55  1  0  0  0  0
 55 56  1  0  0  0  0
 55 62  1  0  0  0  0
 56 63  1  0  0  0  0
 57 58  1  0  0  0  0
 57 56  1  0  0  0  0
 57 65  1  0  0  0  0
 58 67  1  0  0  0  0
 59 54  1  0  0  0  0
 60 54  1  0  0  0  0
 61 55  1  0  0  0  0
 64 56  1  0  0  0  0
 66 57  1  0  0  0  0
 68 58  1  0  0  0  0
M  END
>  <MODEL>
16

>  <REMARK>
 VINA RESULT:    -7.435      3.929     10.261
 INTER + INTRA:         -11.858
 INTER:                 -11.821
 INTRA:                  -0.038
 UNBOUND:                -1.163
  Name = 
  8 active torsions:
  status: ('A' for Active; 'I' for Inactive)
    1  A    between atoms: C_1  and  N_2
    2  A    between atoms: C_6  and  C_7
    3  A    between atoms: C_7  and  C_8
    4  A    between atoms: C_8  and  C_12
    5  A    between atoms: C_16  and  N_18
    6  A    between atoms: C_23  and  C_24
    7  A    between atoms: C_24  and  N_25
    8  A    between atoms: C_32  and  C_33
                            x       y       z     vdW  Elec       q    Type
                         _______ _______ _______ _____ _____    ______ ____

>  <TORSDO>
F 8

$$$$
=
 OpenBabel07192307433D

 68 73  0  0  0  0  0  0  0  0999 V2000
    1.3130    8.7410   18.9380 N   0  0  0  0  0  0  0  0  0  0  0  0
    1.1840    7.5410   19.7500 C   0  0  0  0  0  0  0  0  0  0  0  0
    2.2100    6.6160   19.1830 C   0  0  0  0  0  0  0  0  0  0  0  0
    2.8630    7.2380   18.1270 C   0  0  0  0  0  0  0  0  0  0  0  0
    3.8560    6.6160   17.3950 C   0  0  0  0  0  0  0  0  0  0  0  0
    4.2150    5.3040   17.7460 C   0  0  0  0  0  0  0  0  0  0  0  0
    3.5530    4.6680   18.8230 C   0  0  0  0  0  0  0  0  0  0  0  0
    2.5410    5.3170   19.5590 C   0  0  0  0  0  0  0  0  0  0  0  0
    2.3020    8.5860   17.9580 C   0  0  0  0  0  0  0  0  0  0  0  0
    2.6920    9.3380   17.0850 O   0  0  0  0  0  0  0  0  0  0  0  0
    0.1800    7.1200   19.6300 H   0  0  0  0  0  0  0  0  0  0  0  0
    1.4060    7.7750   20.7980 H   0  0  0  0  0  0  0  0  0  0  0  0
    4.3430    7.1340   16.5730 H   0  0  0  0  0  0  0  0  0  0  0  0
    3.8340    3.6480   19.0900 H   0  0  0  0  0  0  0  0  0  0  0  0
    0.2340   12.2030   20.0150 C   0  0  0  0  0  0  0  0  0  0  0  0
   -1.0990   12.1660   19.5770 C   0  0  0  0  0  0  0  0  0  0  0  0
   -1.6320   11.0440   18.9440 C   0  0  0  0  0  0  0  0  0  0  0  0
   -0.8440    9.9130   18.7340 C   0  0  0  0  0  0  0  0  0  0  0  0
    0.4920    9.8870   19.1390 C   0  0  0  0  0  0  0  0  0  0  0  0
    1.0060   11.0400   19.7640 C   0  0  0  0  0  0  0  0  0  0  0  0
   -1.7370   13.0400   19.7090 H   0  0  0  0  0  0  0  0  0  0  0  0
   -2.6650   11.0530   18.6050 H   0  0  0  0  0  0  0  0  0  0  0  0
   -1.3080    9.0690   18.2350 H   0  0  0  0  0  0  0  0  0  0  0  0
    2.0430   11.0650   20.0860 H   0  0  0  0  0  0  0  0  0  0  0  0
    0.8470   13.4850   20.7630 C   0  0  0  0  0  0  0  0  0  0  0  0
    0.2730   14.8860   20.3910 C   0  0  0  0  0  0  0  0  0  0  0  0
    0.2350   15.2620   21.7960 O   0  0  0  0  0  0  0  0  0  0  0  0
    0.2290   13.8490   22.1460 C   0  0  0  0  0  0  0  0  0  0  0  0
   -0.7360   14.8950   19.9600 H   0  0  0  0  0  0  0  0  0  0  0  0
    0.9120   15.5530   19.8100 H   0  0  0  0  0  0  0  0  0  0  0  0
    0.8450   13.6420   23.0260 H   0  0  0  0  0  0  0  0  0  0  0  0
   -0.7940   13.5020   22.3330 H   0  0  0  0  0  0  0  0  0  0  0  0
    2.3860   13.4140   20.8520 C   0  0  0  0  0  0  0  0  0  0  0  0
    2.7310   13.8580   21.7940 H   0  0  0  0  0  0  0  0  0  0  0  0
    2.7100   12.3660   20.8970 H   0  0  0  0  0  0  0  0  0  0  0  0
    4.2440   14.8040   19.8110 N   0  0  0  0  0  0  0  0  0  0  0  0
    4.5100   15.2640   18.5570 C   0  0  0  0  0  0  0  0  0  0  0  0
    3.5820   14.8460   17.7320 N   0  0  0  0  0  0  0  0  0  0  0  0
    2.6890   14.0950   18.4560 N   0  0  0  0  0  0  0  0  0  0  0  0
    3.0790   14.0830   19.7150 C   0  0  0  0  0  0  0  0  0  0  0  0
    5.3630   15.8790   18.3000 H   0  0  0  0  0  0  0  0  0  0  0  0
    5.0460   15.0380   20.9800 C   0  0  0  0  0  0  0  0  0  0  0  0
    4.8080   16.0330   21.3650 H   0  0  0  0  0  0  0  0  0  0  0  0
    6.1020   14.9720   20.7090 H   0  0  0  0  0  0  0  0  0  0  0  0
    4.8200   14.2840   21.7390 H   0  0  0  0  0  0  0  0  0  0  0  0
    1.8370    4.6400   20.7040 C   0  0  0  0  0  0  0  0  0  0  0  0
    2.2650    5.0950   21.9140 F   0  0  0  0  0  0  0  0  0  0  0  0
    0.4870    4.8060   20.6950 F   0  0  0  0  0  0  0  0  0  0  0  0
    2.0520    3.2950   20.7180 F   0  0  0  0  0  0  0  0  0  0  0  0
    5.2750    4.5630   16.9530 C   0  0  0  0  0  0  0  0  0  0  0  0
    5.1180    4.8470   15.9030 H   0  0  0  0  0  0  0  0  0  0  0  0
    5.1120    3.4790   17.0080 H   0  0  0  0  0  0  0  0  0  0  0  0
    6.6440    4.8930   17.3640 N   0  0  0  0  0  0  0  0  0  0  0  0
    7.2590    5.9570   16.5550 C   0  0  0  0  0  0  0  0  0  0  0  0
    7.3770    7.2980   17.2790 C   0  0  0  0  0  0  0  0  0  0  0  0
    8.1870    7.1690   18.5680 C   0  0  0  0  0  0  0  0  0  0  0  0
    8.0130    5.8020   19.2270 C   0  0  0  0  0  0  0  0  0  0  0  0
    6.7010    5.1420   18.8130 C   0  0  0  0  0  0  0  0  0  0  0  0
    8.2670    5.6200   16.2810 H   0  0  0  0  0  0  0  0  0  0  0  0
    6.7340    6.1120   15.6040 H   0  0  0  0  0  0  0  0  0  0  0  0
    7.8480    8.0400   16.6240 H   0  0  0  0  0  0  0  0  0  0  0  0
    6.3740    7.6770   17.5120 H   0  0  0  0  0  0  0  0  0  0  0  0
    7.8870    7.9640   19.2590 H   0  0  0  0  0  0  0  0  0  0  0  0
    9.2520    7.3290   18.3590 H   0  0  0  0  0  0  0  0  0  0  0  0
    8.0550    5.9090   20.3180 H   0  0  0  0  0  0  0  0  0  0  0  0
    8.8540    5.1520   18.9500 H   0  0  0  0  0  0  0  0  0  0  0  0
    5.8680    5.7820   19.1340 H   0  0  0  0  0  0  0  0  0  0  0  0
    6.6000    4.1880   19.3430 H   0  0  0  0  0  0  0  0  0  0  0  0
  1 19  1  0  0  0  0
  1  2  1  0  0  0  0
  2 12  1  0  0  0  0
  3  8  1  0  0  0  0
  3  2  1  0  0  0  0
  4  3  2  0  0  0  0
  5  6  2  0  0  0  0
  5  4  1  0  0  0  0
  6  7  1  0  0  0  0
  7 14  1  0  0  0  0
  7  8  2  0  0  0  0
  8 46  1  0  0  0  0
  9  4  1  0  0  0  0
  9  1  1  0  0  0  0
 10  9  2  0  0  0  0
 11  2  1  0  0  0  0
 13  5  1  0  0  0  0
 15 25  1  0  0  0  0
 16 21  1  0  0  0  0
 16 15  2  0  0  0  0
 17 16  1  0  0  0  0
 18 17  2  0  0  0  0
 18 19  1  0  0  0  0
 19 20  2  0  0  0  0
 20 15  1  0  0  0  0
 20 24  1  0  0  0  0
 22 17  1  0  0  0  0
 23 18  1  0  0  0  0
 25 33  1  0  0  0  0
 25 28  1  0  0  0  0
 26 25  1  0  0  0  0
 26 27  1  0  0  0  0
 27 28  1  0  0  0  0
 28 32  1  0  0  0  0
 28 31  1  0  0  0  0
 29 26  1  0  0  0  0
 30 26  1  0  0  0  0
 33 35  1  0  0  0  0
 33 34  1  0  0  0  0
 36 42  1  0  0  0  0
 37 36  1  0  0  0  0
 38 39  1  0  0  0  0
 38 37  2  0  0  0  0
 39 40  2  0  0  0  0
 40 36  1  0  0  0  0
 40 33  1  0  0  0  0
 41 37  1  0  0  0  0
 42 43  1  0  0  0  0
 42 45  1  0  0  0  0
 44 42  1  0  0  0  0
 46 49  1  0  0  0  0
 46 47  1  0  0  0  0
 48 46  1  0  0  0  0
 50 52  1  0  0  0  0
 50 53  1  0  0  0  0
 50  6  1  0  0  0  0
 51 50  1  0  0  0  0
 53 58  1  0  0  0  0
 54 55  1  0  0  0  0
 54 53  1  0  0  0  0
 55 62  1  0  0  0  0
 55 56  1  0  0  0  0
 56 57  1  0  0  0  0
 56 63  1  0  0  0  0
 57 65  1  0  0  0  0
 58 67  1  0  0  0  0
 58 57  1  0  0  0  0
 58 68  1  0  0  0  0
 59 54  1  0  0  0  0
 60 54  1  0  0  0  0
 61 55  1  0  0  0  0
 64 56  1  0  0  0  0
 66 57  1  0  0  0  0
M  END
>  <MODEL>
17

>  <REMARK>
 VINA RESULT:    -7.430      2.766      3.969
 INTER + INTRA:         -11.851
 INTER:                 -10.734
 INTRA:                  -1.118
 UNBOUND:                -1.163
  Name = 
  8 active torsions:
  status: ('A' for Active; 'I' for Inactive)
    1  A    between atoms: C_1  and  N_2
    2  A    between atoms: C_6  and  C_7
    3  A    between atoms: C_7  and  C_8
    4  A    between atoms: C_8  and  C_12
    5  A    between atoms: C_16  and  N_18
    6  A    between atoms: C_23  and  C_24
    7  A    between atoms: C_24  and  N_25
    8  A    between atoms: C_32  and  C_33
                            x       y       z     vdW  Elec       q    Type
                         _______ _______ _______ _____ _____    ______ ____

>  <TORSDO>
F 8

$$$$
=
 OpenBabel07192307433D

 68 73  0  0  0  0  0  0  0  0999 V2000
    2.0490    6.9830   19.1210 N   0  0  0  0  0  0  0  0  0  0  0  0
    2.1080    8.3240   18.5590 C   0  0  0  0  0  0  0  0  0  0  0  0
    1.4350    9.1710   19.5880 C   0  0  0  0  0  0  0  0  0  0  0  0
    1.0180    8.3730   20.6450 C   0  0  0  0  0  0  0  0  0  0  0  0
    0.3470    8.8810   21.7410 C   0  0  0  0  0  0  0  0  0  0  0  0
    0.0870   10.2610   21.7780 C   0  0  0  0  0  0  0  0  0  0  0  0
    0.5120   11.0760   20.7030 C   0  0  0  0  0  0  0  0  0  0  0  0
    1.1950   10.5420   19.5920 C   0  0  0  0  0  0  0  0  0  0  0  0
    1.3990    6.9830   20.3620 C   0  0  0  0  0  0  0  0  0  0  0  0
    1.1330    6.0760   21.1280 O   0  0  0  0  0  0  0  0  0  0  0  0
    1.5530    8.3530   17.6150 H   0  0  0  0  0  0  0  0  0  0  0  0
    3.1540    8.6260   18.4270 H   0  0  0  0  0  0  0  0  0  0  0  0
    0.0340    8.2250   22.5500 H   0  0  0  0  0  0  0  0  0  0  0  0
    0.3050   12.1470   20.7360 H   0  0  0  0  0  0  0  0  0  0  0  0
    4.2790    4.8810   16.9040 C   0  0  0  0  0  0  0  0  0  0  0  0
    3.6390    3.6420   17.0570 C   0  0  0  0  0  0  0  0  0  0  0  0
    2.5120    3.4930   17.8630 C   0  0  0  0  0  0  0  0  0  0  0  0
    1.9820    4.5890   18.5420 C   0  0  0  0  0  0  0  0  0  0  0  0
    2.5750    5.8490   18.4400 C   0  0  0  0  0  0  0  0  0  0  0  0
    3.7210    5.9650   17.6270 C   0  0  0  0  0  0  0  0  0  0  0  0
    4.0380    2.7600   16.5540 H   0  0  0  0  0  0  0  0  0  0  0  0
    2.0470    2.5150   17.9700 H   0  0  0  0  0  0  0  0  0  0  0  0
    1.1050    4.4180   19.1580 H   0  0  0  0  0  0  0  0  0  0  0  0
    4.2190    6.9260   17.5280 H   0  0  0  0  0  0  0  0  0  0  0  0
    5.5660    5.0610   15.9600 C   0  0  0  0  0  0  0  0  0  0  0  0
    6.4530    3.8080   15.6950 C   0  0  0  0  0  0  0  0  0  0  0  0
    6.5430    4.1500   14.2830 O   0  0  0  0  0  0  0  0  0  0  0  0
    5.3290    4.9400   14.4250 C   0  0  0  0  0  0  0  0  0  0  0  0
    5.9660    2.8350   15.8270 H   0  0  0  0  0  0  0  0  0  0  0  0
    7.4360    3.7800   16.1670 H   0  0  0  0  0  0  0  0  0  0  0  0
    5.3740    5.8680   13.8480 H   0  0  0  0  0  0  0  0  0  0  0  0
    4.4530    4.3620   14.1080 H   0  0  0  0  0  0  0  0  0  0  0  0
    6.3430    6.3530   16.2930 C   0  0  0  0  0  0  0  0  0  0  0  0
    7.0240    6.6060   15.4710 H   0  0  0  0  0  0  0  0  0  0  0  0
    5.6490    7.2010   16.3590 H   0  0  0  0  0  0  0  0  0  0  0  0
    7.8080    7.3070   18.1400 N   0  0  0  0  0  0  0  0  0  0  0  0
    8.3960    6.7980   19.2570 C   0  0  0  0  0  0  0  0  0  0  0  0
    8.0840    5.5300   19.3760 N   0  0  0  0  0  0  0  0  0  0  0  0
    7.2740    5.2000   18.3180 N   0  0  0  0  0  0  0  0  0  0  0  0
    7.1200    6.2690   17.5620 C   0  0  0  0  0  0  0  0  0  0  0  0
    9.0230    7.3670   19.9320 H   0  0  0  0  0  0  0  0  0  0  0  0
    7.9030    8.6670   17.6860 C   0  0  0  0  0  0  0  0  0  0  0  0
    8.8690    9.0670   18.0020 H   0  0  0  0  0  0  0  0  0  0  0  0
    7.0840    9.2460   18.1180 H   0  0  0  0  0  0  0  0  0  0  0  0
    7.8290    8.6970   16.5950 H   0  0  0  0  0  0  0  0  0  0  0  0
    1.6460   11.4090   18.4480 C   0  0  0  0  0  0  0  0  0  0  0  0
    0.6350   12.1760   17.9530 F   0  0  0  0  0  0  0  0  0  0  0  0
    2.6480   12.2710   18.7720 F   0  0  0  0  0  0  0  0  0  0  0  0
    2.1030   10.6770   17.3950 F   0  0  0  0  0  0  0  0  0  0  0  0
   -0.6770   10.8630   22.9420 C   0  0  0  0  0  0  0  0  0  0  0  0
    0.0800   11.1390   23.6890 H   0  0  0  0  0  0  0  0  0  0  0  0
   -1.3180   10.1090   23.4170 H   0  0  0  0  0  0  0  0  0  0  0  0
   -1.4690   12.0410   22.5700 N   0  0  0  0  0  0  0  0  0  0  0  0
   -2.8870   11.9380   22.9510 C   0  0  0  0  0  0  0  0  0  0  0  0
   -3.2750   12.8190   24.1380 C   0  0  0  0  0  0  0  0  0  0  0  0
   -2.9740   14.2910   23.8660 C   0  0  0  0  0  0  0  0  0  0  0  0
   -1.7500   14.4770   22.9710 C   0  0  0  0  0  0  0  0  0  0  0  0
   -0.8160   13.2710   23.0410 C   0  0  0  0  0  0  0  0  0  0  0  0
   -3.4830   12.2430   22.0820 H   0  0  0  0  0  0  0  0  0  0  0  0
   -3.1870   10.9040   23.1620 H   0  0  0  0  0  0  0  0  0  0  0  0
   -4.3410   12.6990   24.3640 H   0  0  0  0  0  0  0  0  0  0  0  0
   -2.7280   12.4910   25.0310 H   0  0  0  0  0  0  0  0  0  0  0  0
   -2.8260   14.8080   24.8200 H   0  0  0  0  0  0  0  0  0  0  0  0
   -3.8380   14.7690   23.3880 H   0  0  0  0  0  0  0  0  0  0  0  0
   -1.2140   15.3880   23.2590 H   0  0  0  0  0  0  0  0  0  0  0  0
   -2.0750   14.6270   21.9320 H   0  0  0  0  0  0  0  0  0  0  0  0
   -0.4640   13.1580   24.0750 H   0  0  0  0  0  0  0  0  0  0  0  0
    0.0650   13.4680   22.4190 H   0  0  0  0  0  0  0  0  0  0  0  0
  1  9  1  0  0  0  0
  2  1  1  0  0  0  0
  2  3  1  0  0  0  0
  3  8  2  0  0  0  0
  3  4  1  0  0  0  0
  4  5  2  0  0  0  0
  5  6  1  0  0  0  0
  5 13  1  0  0  0  0
  6 50  1  0  0  0  0
  7 14  1  0  0  0  0
  7  6  2  0  0  0  0
  8  7  1  0  0  0  0
  9  4  1  0  0  0  0
  9 10  2  0  0  0  0
 11  2  1  0  0  0  0
 12  2  1  0  0  0  0
 15 16  2  0  0  0  0
 15 20  1  0  0  0  0
 16 17  1  0  0  0  0
 17 22  1  0  0  0  0
 17 18  2  0  0  0  0
 18 23  1  0  0  0  0
 19 18  1  0  0  0  0
 19  1  1  0  0  0  0
 20 19  2  0  0  0  0
 21 16  1  0  0  0  0
 24 20  1  0  0  0  0
 25 33  1  0  0  0  0
 25 15  1  0  0  0  0
 26 29  1  0  0  0  0
 26 25  1  0  0  0  0
 26 30  1  0  0  0  0
 27 28  1  0  0  0  0
 27 26  1  0  0  0  0
 28 25  1  0  0  0  0
 31 28  1  0  0  0  0
 32 28  1  0  0  0  0
 33 35  1  0  0  0  0
 33 40  1  0  0  0  0
 34 33  1  0  0  0  0
 36 37  1  0  0  0  0
 37 38  2  0  0  0  0
 37 41  1  0  0  0  0
 39 38  1  0  0  0  0
 40 36  1  0  0  0  0
 40 39  2  0  0  0  0
 42 43  1  0  0  0  0
 42 44  1  0  0  0  0
 42 36  1  0  0  0  0
 45 42  1  0  0  0  0
 46 48  1  0  0  0  0
 46  8  1  0  0  0  0
 47 46  1  0  0  0  0
 49 46  1  0  0  0  0
 50 52  1  0  0  0  0
 50 51  1  0  0  0  0
 53 50  1  0  0  0  0
 53 54  1  0  0  0  0
 53 58  1  0  0  0  0
 54 60  1  0  0  0  0
 54 55  1  0  0  0  0
 55 61  1  0  0  0  0
 55 62  1  0  0  0  0
 56 55  1  0  0  0  0
 56 63  1  0  0  0  0
 57 58  1  0  0  0  0
 57 65  1  0  0  0  0
 57 56  1  0  0  0  0
 58 67  1  0  0  0  0
 59 54  1  0  0  0  0
 64 56  1  0  0  0  0
 66 57  1  0  0  0  0
 68 58  1  0  0  0  0
M  END
>  <MODEL>
18

>  <REMARK>
 VINA RESULT:    -7.417      3.885      9.800
 INTER + INTRA:         -11.833
 INTER:                 -11.527
 INTRA:                  -0.305
 UNBOUND:                -1.163
  Name = 
  8 active torsions:
  status: ('A' for Active; 'I' for Inactive)
    1  A    between atoms: C_1  and  N_2
    2  A    between atoms: C_6  and  C_7
    3  A    between atoms: C_7  and  C_8
    4  A    between atoms: C_8  and  C_12
    5  A    between atoms: C_16  and  N_18
    6  A    between atoms: C_23  and  C_24
    7  A    between atoms: C_24  and  N_25
    8  A    between atoms: C_32  and  C_33
                            x       y       z     vdW  Elec       q    Type
                         _______ _______ _______ _____ _____    ______ ____

>  <TORSDO>
F 8

$$$$
=
 OpenBabel07192307433D

 68 73  0  0  0  0  0  0  0  0999 V2000
    1.3020    8.6250   18.8830 N   0  0  0  0  0  0  0  0  0  0  0  0
    1.2070    7.4440   19.7300 C   0  0  0  0  0  0  0  0  0  0  0  0
    2.2680    6.5380   19.1970 C   0  0  0  0  0  0  0  0  0  0  0  0
    2.9070    7.1510   18.1270 C   0  0  0  0  0  0  0  0  0  0  0  0
    3.9260    6.5420   17.4200 C   0  0  0  0  0  0  0  0  0  0  0  0
    4.3260    5.2540   17.8120 C   0  0  0  0  0  0  0  0  0  0  0  0
    3.6770    4.6280   18.9030 C   0  0  0  0  0  0  0  0  0  0  0  0
    2.6390    5.2630   19.6120 C   0  0  0  0  0  0  0  0  0  0  0  0
    2.3040    8.4740   17.9150 C   0  0  0  0  0  0  0  0  0  0  0  0
    2.6740    9.2130   17.0230 O   0  0  0  0  0  0  0  0  0  0  0  0
    0.2190    6.9870   19.6140 H   0  0  0  0  0  0  0  0  0  0  0  0
    1.4130    7.7170   20.7710 H   0  0  0  0  0  0  0  0  0  0  0  0
    4.4030    7.0520   16.5870 H   0  0  0  0  0  0  0  0  0  0  0  0
    3.9900    3.6250   19.2010 H   0  0  0  0  0  0  0  0  0  0  0  0
    0.0960   12.0720   19.8670 C   0  0  0  0  0  0  0  0  0  0  0  0
   -1.2280   11.9830   19.4060 C   0  0  0  0  0  0  0  0  0  0  0  0
   -1.7130   10.8330   18.7880 C   0  0  0  0  0  0  0  0  0  0  0  0
   -0.8860    9.7230   18.6160 C   0  0  0  0  0  0  0  0  0  0  0  0
    0.4420    9.7470   19.0450 C   0  0  0  0  0  0  0  0  0  0  0  0
    0.9080   10.9290   19.6550 C   0  0  0  0  0  0  0  0  0  0  0  0
   -1.8950   12.8400   19.5090 H   0  0  0  0  0  0  0  0  0  0  0  0
   -2.7400   10.8020   18.4300 H   0  0  0  0  0  0  0  0  0  0  0  0
   -1.3140    8.8540   18.1270 H   0  0  0  0  0  0  0  0  0  0  0  0
    1.9380   10.9930   19.9950 H   0  0  0  0  0  0  0  0  0  0  0  0
    0.6530   13.3880   20.5980 C   0  0  0  0  0  0  0  0  0  0  0  0
    2.0730   13.8940   20.2000 C   0  0  0  0  0  0  0  0  0  0  0  0
    1.5910   15.2670   20.1620 O   0  0  0  0  0  0  0  0  0  0  0  0
    0.2390   14.7580   19.9830 C   0  0  0  0  0  0  0  0  0  0  0  0
    2.4360   13.5830   19.2140 H   0  0  0  0  0  0  0  0  0  0  0  0
    2.8740   13.7670   20.9300 H   0  0  0  0  0  0  0  0  0  0  0  0
   -0.4960   15.3440   20.5430 H   0  0  0  0  0  0  0  0  0  0  0  0
   -0.0360   14.7560   18.9220 H   0  0  0  0  0  0  0  0  0  0  0  0
    0.3720   13.3630   22.1160 C   0  0  0  0  0  0  0  0  0  0  0  0
    0.9710   12.5810   22.5990 H   0  0  0  0  0  0  0  0  0  0  0  0
    0.7070   14.3020   22.5740 H   0  0  0  0  0  0  0  0  0  0  0  0
   -1.6170   11.9640   22.8610 N   0  0  0  0  0  0  0  0  0  0  0  0
   -2.9480   12.1990   23.0270 C   0  0  0  0  0  0  0  0  0  0  0  0
   -3.2060   13.4550   22.7520 N   0  0  0  0  0  0  0  0  0  0  0  0
   -2.0230   14.0560   22.4000 N   0  0  0  0  0  0  0  0  0  0  0  0
   -1.0650   13.1520   22.4500 C   0  0  0  0  0  0  0  0  0  0  0  0
   -3.6670   11.4530   23.3390 H   0  0  0  0  0  0  0  0  0  0  0  0
   -0.9510   10.7100   23.0860 C   0  0  0  0  0  0  0  0  0  0  0  0
   -0.9180   10.5280   24.1630 H   0  0  0  0  0  0  0  0  0  0  0  0
    0.0580   10.7610   22.6720 H   0  0  0  0  0  0  0  0  0  0  0  0
   -1.5040    9.9060   22.5920 H   0  0  0  0  0  0  0  0  0  0  0  0
    1.9490    4.5960   20.7710 C   0  0  0  0  0  0  0  0  0  0  0  0
    2.1400    5.2680   21.9410 F   0  0  0  0  0  0  0  0  0  0  0  0
    0.6020    4.4830   20.6190 F   0  0  0  0  0  0  0  0  0  0  0  0
    2.4120    3.3340   20.9900 F   0  0  0  0  0  0  0  0  0  0  0  0
    5.4160    4.5260   17.0480 C   0  0  0  0  0  0  0  0  0  0  0  0
    5.2440    4.7550   15.9870 H   0  0  0  0  0  0  0  0  0  0  0  0
    5.3020    3.4390   17.1520 H   0  0  0  0  0  0  0  0  0  0  0  0
    6.7710    4.9340   17.4380 N   0  0  0  0  0  0  0  0  0  0  0  0
    7.3160    6.0220   16.6110 C   0  0  0  0  0  0  0  0  0  0  0  0
    7.3700    7.3740   17.3200 C   0  0  0  0  0  0  0  0  0  0  0  0
    8.2010    7.3030   18.6000 C   0  0  0  0  0  0  0  0  0  0  0  0
    8.1110    5.9360   19.2750 C   0  0  0  0  0  0  0  0  0  0  0  0
    6.8310    5.2010   18.8830 C   0  0  0  0  0  0  0  0  0  0  0  0
    8.3370    5.7370   16.3270 H   0  0  0  0  0  0  0  0  0  0  0  0
    6.7720    6.1380   15.6650 H   0  0  0  0  0  0  0  0  0  0  0  0
    7.7910    8.1340   16.6520 H   0  0  0  0  0  0  0  0  0  0  0  0
    6.3500    7.7000   17.5620 H   0  0  0  0  0  0  0  0  0  0  0  0
    7.8670    8.0880   19.2870 H   0  0  0  0  0  0  0  0  0  0  0  0
    9.2530    7.5190   18.3750 H   0  0  0  0  0  0  0  0  0  0  0  0
    8.1600    6.0560   20.3630 H   0  0  0  0  0  0  0  0  0  0  0  0
    8.9820    5.3290   18.9920 H   0  0  0  0  0  0  0  0  0  0  0  0
    5.9680    5.7970   19.2090 H   0  0  0  0  0  0  0  0  0  0  0  0
    6.7890    4.2480   19.4240 H   0  0  0  0  0  0  0  0  0  0  0  0
  1 19  1  0  0  0  0
  1  2  1  0  0  0  0
  2 12  1  0  0  0  0
  3  8  1  0  0  0  0
  3  2  1  0  0  0  0
  4  3  2  0  0  0  0
  5  6  2  0  0  0  0
  5  4  1  0  0  0  0
  6  7  1  0  0  0  0
  7 14  1  0  0  0  0
  7  8  2  0  0  0  0
  8 46  1  0  0  0  0
  9  4  1  0  0  0  0
  9  1  1  0  0  0  0
 10  9  2  0  0  0  0
 11  2  1  0  0  0  0
 13  5  1  0  0  0  0
 15 25  1  0  0  0  0
 16 21  1  0  0  0  0
 16 15  2  0  0  0  0
 17 16  1  0  0  0  0
 18 17  2  0  0  0  0
 18 19  1  0  0  0  0
 19 20  2  0  0  0  0
 20 15  1  0  0  0  0
 20 24  1  0  0  0  0
 22 17  1  0  0  0  0
 23 18  1  0  0  0  0
 25 33  1  0  0  0  0
 26 25  1  0  0  0  0
 26 30  1  0  0  0  0
 27 26  1  0  0  0  0
 28 27  1  0  0  0  0
 28 31  1  0  0  0  0
 28 25  1  0  0  0  0
 29 26  1  0  0  0  0
 32 28  1  0  0  0  0
 33 40  1  0  0  0  0
 33 35  1  0  0  0  0
 33 34  1  0  0  0  0
 36 37  1  0  0  0  0
 36 42  1  0  0  0  0
 37 41  1  0  0  0  0
 38 37  2  0  0  0  0
 39 40  2  0  0  0  0
 39 38  1  0  0  0  0
 40 36  1  0  0  0  0
 42 43  1  0  0  0  0
 44 42  1  0  0  0  0
 45 42  1  0  0  0  0
 46 49  1  0  0  0  0
 46 47  1  0  0  0  0
 48 46  1  0  0  0  0
 50 52  1  0  0  0  0
 50 53  1  0  0  0  0
 50  6  1  0  0  0  0
 51 50  1  0  0  0  0
 53 58  1  0  0  0  0
 54 55  1  0  0  0  0
 54 53  1  0  0  0  0
 55 62  1  0  0  0  0
 55 56  1  0  0  0  0
 56 57  1  0  0  0  0
 56 63  1  0  0  0  0
 57 65  1  0  0  0  0
 58 67  1  0  0  0  0
 58 57  1  0  0  0  0
 58 68  1  0  0  0  0
 59 54  1  0  0  0  0
 60 54  1  0  0  0  0
 61 55  1  0  0  0  0
 64 56  1  0  0  0  0
 66 57  1  0  0  0  0
M  END
>  <MODEL>
19

>  <REMARK>
 VINA RESULT:    -7.324      2.167      3.247
 INTER + INTRA:         -11.698
 INTER:                 -10.470
 INTRA:                  -1.228
 UNBOUND:                -1.163
  Name = 
  8 active torsions:
  status: ('A' for Active; 'I' for Inactive)
    1  A    between atoms: C_1  and  N_2
    2  A    between atoms: C_6  and  C_7
    3  A    between atoms: C_7  and  C_8
    4  A    between atoms: C_8  and  C_12
    5  A    between atoms: C_16  and  N_18
    6  A    between atoms: C_23  and  C_24
    7  A    between atoms: C_24  and  N_25
    8  A    between atoms: C_32  and  C_33
                            x       y       z     vdW  Elec       q    Type
                         _______ _______ _______ _____ _____    ______ ____

>  <TORSDO>
F 8

$$$$
=
 OpenBabel07192307433D

 68 73  0  0  0  0  0  0  0  0999 V2000
    0.8960    9.6210   19.6930 N   0  0  0  0  0  0  0  0  0  0  0  0
    1.8740    9.0970   18.7500 C   0  0  0  0  0  0  0  0  0  0  0  0
    2.1590    7.7230   19.2610 C   0  0  0  0  0  0  0  0  0  0  0  0
    1.4100    7.4900   20.4070 C   0  0  0  0  0  0  0  0  0  0  0  0
    1.4800    6.3030   21.1130 C   0  0  0  0  0  0  0  0  0  0  0  0
    2.3400    5.3000   20.6390 C   0  0  0  0  0  0  0  0  0  0  0  0
    3.1020    5.5340   19.4700 C   0  0  0  0  0  0  0  0  0  0  0  0
    3.0210    6.7500   18.7630 C   0  0  0  0  0  0  0  0  0  0  0  0
    0.6070    8.6860   20.6940 C   0  0  0  0  0  0  0  0  0  0  0  0
   -0.1290    8.7480   21.6610 O   0  0  0  0  0  0  0  0  0  0  0  0
    2.7790    9.7120   18.7780 H   0  0  0  0  0  0  0  0  0  0  0  0
    1.4370    9.0580   17.7450 H   0  0  0  0  0  0  0  0  0  0  0  0
    0.8800    6.1580   22.0080 H   0  0  0  0  0  0  0  0  0  0  0  0
    3.7720    4.7520   19.1090 H   0  0  0  0  0  0  0  0  0  0  0  0
   -1.4000   12.5840   20.1970 C   0  0  0  0  0  0  0  0  0  0  0  0
   -0.7500   13.5120   19.3680 C   0  0  0  0  0  0  0  0  0  0  0  0
    0.4070   13.1820   18.6650 C   0  0  0  0  0  0  0  0  0  0  0  0
    0.9520   11.9030   18.7660 C   0  0  0  0  0  0  0  0  0  0  0  0
    0.3590   10.9350   19.5780 C   0  0  0  0  0  0  0  0  0  0  0  0
   -0.8020   11.3020   20.2870 C   0  0  0  0  0  0  0  0  0  0  0  0
   -1.1400   14.5270   19.2820 H   0  0  0  0  0  0  0  0  0  0  0  0
    0.8930   13.9290   18.0410 H   0  0  0  0  0  0  0  0  0  0  0  0
    1.8550   11.7000   18.1990 H   0  0  0  0  0  0  0  0  0  0  0  0
   -1.2900   10.5810   20.9380 H   0  0  0  0  0  0  0  0  0  0  0  0
   -2.7450   12.9530   20.9930 C   0  0  0  0  0  0  0  0  0  0  0  0
   -3.3110   14.3960   20.8320 C   0  0  0  0  0  0  0  0  0  0  0  0
   -4.6610   13.8690   20.6940 O   0  0  0  0  0  0  0  0  0  0  0  0
   -4.0910   12.5900   20.2970 C   0  0  0  0  0  0  0  0  0  0  0  0
   -3.0100   14.9340   19.9250 H   0  0  0  0  0  0  0  0  0  0  0  0
   -3.2250   15.0680   21.6880 H   0  0  0  0  0  0  0  0  0  0  0  0
   -4.6460   11.7460   20.7170 H   0  0  0  0  0  0  0  0  0  0  0  0
   -4.0690   12.4980   19.2050 H   0  0  0  0  0  0  0  0  0  0  0  0
   -2.7170   12.4210   22.4420 C   0  0  0  0  0  0  0  0  0  0  0  0
   -3.5790   11.7670   22.6210 H   0  0  0  0  0  0  0  0  0  0  0  0
   -1.8380   11.7800   22.5870 H   0  0  0  0  0  0  0  0  0  0  0  0
   -1.6480   14.3470   23.7120 N   0  0  0  0  0  0  0  0  0  0  0  0
   -2.0340   15.1480   24.7440 C   0  0  0  0  0  0  0  0  0  0  0  0
   -3.2520   14.8310   25.1110 N   0  0  0  0  0  0  0  0  0  0  0  0
   -3.6750   13.8030   24.3050 N   0  0  0  0  0  0  0  0  0  0  0  0
   -2.7000   13.4990   23.4710 C   0  0  0  0  0  0  0  0  0  0  0  0
   -1.4170   15.9230   25.1800 H   0  0  0  0  0  0  0  0  0  0  0  0
   -0.3840   14.4070   23.0300 C   0  0  0  0  0  0  0  0  0  0  0  0
   -0.4940   13.9100   22.0630 H   0  0  0  0  0  0  0  0  0  0  0  0
    0.3740   13.9090   23.6370 H   0  0  0  0  0  0  0  0  0  0  0  0
   -0.0970   15.4510   22.8780 H   0  0  0  0  0  0  0  0  0  0  0  0
    3.8320    6.9990   17.5210 C   0  0  0  0  0  0  0  0  0  0  0  0
    3.2020    7.8390   16.6520 F   0  0  0  0  0  0  0  0  0  0  0  0
    5.0520    7.5530   17.7610 F   0  0  0  0  0  0  0  0  0  0  0  0
    4.0680    5.8550   16.8210 F   0  0  0  0  0  0  0  0  0  0  0  0
    2.4800    3.9930   21.3960 C   0  0  0  0  0  0  0  0  0  0  0  0
    1.6630    3.9810   22.1300 H   0  0  0  0  0  0  0  0  0  0  0  0
    3.4130    3.9780   21.9730 H   0  0  0  0  0  0  0  0  0  0  0  0
    2.3970    2.8090   20.5320 N   0  0  0  0  0  0  0  0  0  0  0  0
    1.1460    2.7350   19.7600 C   0  0  0  0  0  0  0  0  0  0  0  0
    1.3150    3.0460   18.2740 C   0  0  0  0  0  0  0  0  0  0  0  0
    2.3240    2.1060   17.6150 C   0  0  0  0  0  0  0  0  0  0  0  0
    3.4310    1.6800   18.5760 C   0  0  0  0  0  0  0  0  0  0  0  0
    3.6100    2.6870   19.7100 C   0  0  0  0  0  0  0  0  0  0  0  0
    0.7600    1.7120   19.8590 H   0  0  0  0  0  0  0  0  0  0  0  0
    0.3630    3.3830   20.1730 H   0  0  0  0  0  0  0  0  0  0  0  0
    0.3500    2.9660   17.7600 H   0  0  0  0  0  0  0  0  0  0  0  0
    1.6480    4.0850   18.1540 H   0  0  0  0  0  0  0  0  0  0  0  0
    2.7540    2.6020   16.7380 H   0  0  0  0  0  0  0  0  0  0  0  0
    1.8130    1.2110   17.2420 H   0  0  0  0  0  0  0  0  0  0  0  0
    4.3720    1.5570   18.0270 H   0  0  0  0  0  0  0  0  0  0  0  0
    3.1910    0.6940   18.9980 H   0  0  0  0  0  0  0  0  0  0  0  0
    3.8920    3.6570   19.2780 H   0  0  0  0  0  0  0  0  0  0  0  0
    4.4410    2.3620   20.3460 H   0  0  0  0  0  0  0  0  0  0  0  0
  1  9  1  0  0  0  0
  2 11  1  0  0  0  0
  2  3  1  0  0  0  0
  2  1  1  0  0  0  0
  3  4  1  0  0  0  0
  4  9  1  0  0  0  0
  4  5  2  0  0  0  0
  5 13  1  0  0  0  0
  6  5  1  0  0  0  0
  6 50  1  0  0  0  0
  7  6  2  0  0  0  0
  8  3  2  0  0  0  0
  8  7  1  0  0  0  0
  9 10  2  0  0  0  0
 12  2  1  0  0  0  0
 14  7  1  0  0  0  0
 15 20  1  0  0  0  0
 15 25  1  0  0  0  0
 16 15  2  0  0  0  0
 17 18  2  0  0  0  0
 17 16  1  0  0  0  0
 18 19  1  0  0  0  0
 19  1  1  0  0  0  0
 19 20  2  0  0  0  0
 20 24  1  0  0  0  0
 21 16  1  0  0  0  0
 22 17  1  0  0  0  0
 23 18  1  0  0  0  0
 25 33  1  0  0  0  0
 26 25  1  0  0  0  0
 26 30  1  0  0  0  0
 27 26  1  0  0  0  0
 28 27  1  0  0  0  0
 28 31  1  0  0  0  0
 28 25  1  0  0  0  0
 29 26  1  0  0  0  0
 32 28  1  0  0  0  0
 33 35  1  0  0  0  0
 33 34  1  0  0  0  0
 33 40  1  0  0  0  0
 36 37  1  0  0  0  0
 37 38  2  0  0  0  0
 37 41  1  0  0  0  0
 39 38  1  0  0  0  0
 40 36  1  0  0  0  0
 40 39  2  0  0  0  0
 42 44  1  0  0  0  0
 42 36  1  0  0  0  0
 43 42  1  0  0  0  0
 45 42  1  0  0  0  0
 46 48  1  0  0  0  0
 46  8  1  0  0  0  0
 47 46  1  0  0  0  0
 49 46  1  0  0  0  0
 50 52  1  0  0  0  0
 50 51  1  0  0  0  0
 53 50  1  0  0  0  0
 54 59  1  0  0  0  0
 54 60  1  0  0  0  0
 54 53  1  0  0  0  0
 55 54  1  0  0  0  0
 56 55  1  0  0  0  0
 56 57  1  0  0  0  0
 57 66  1  0  0  0  0
 57 58  1  0  0  0  0
 58 68  1  0  0  0  0
 58 53  1  0  0  0  0
 61 55  1  0  0  0  0
 62 55  1  0  0  0  0
 63 56  1  0  0  0  0
 64 56  1  0  0  0  0
 65 57  1  0  0  0  0
 67 58  1  0  0  0  0
M  END
>  <MODEL>
20

>  <REMARK>
 VINA RESULT:    -7.300      3.525      5.230
 INTER + INTRA:         -11.665
 INTER:                 -11.595
 INTRA:                  -0.070
 UNBOUND:                -1.163
  Name = 
  8 active torsions:
  status: ('A' for Active; 'I' for Inactive)
    1  A    between atoms: C_1  and  N_2
    2  A    between atoms: C_6  and  C_7
    3  A    between atoms: C_7  and  C_8
    4  A    between atoms: C_8  and  C_12
    5  A    between atoms: C_16  and  N_18
    6  A    between atoms: C_23  and  C_24
    7  A    between atoms: C_24  and  N_25
    8  A    between atoms: C_32  and  C_33
                            x       y       z     vdW  Elec       q    Type
                         _______ _______ _______ _____ _____    ______ ____

>  <TORSDO>
F 8

$$$$
=
 OpenBabel07192307433D

 68 73  0  0  0  0  0  0  0  0999 V2000
    1.3070    8.2540   18.8750 N   0  0  0  0  0  0  0  0  0  0  0  0
    1.2620    7.0980   19.7600 C   0  0  0  0  0  0  0  0  0  0  0  0
    2.3940    6.2460   19.2900 C   0  0  0  0  0  0  0  0  0  0  0  0
    3.0250    6.8630   18.2170 C   0  0  0  0  0  0  0  0  0  0  0  0
    4.1020    6.2980   17.5610 C   0  0  0  0  0  0  0  0  0  0  0  0
    4.5710    5.0520   18.0100 C   0  0  0  0  0  0  0  0  0  0  0  0
    3.9320    4.4220   19.1030 C   0  0  0  0  0  0  0  0  0  0  0  0
    2.8340    5.0120   19.7610 C   0  0  0  0  0  0  0  0  0  0  0  0
    2.3450    8.1360   17.9420 C   0  0  0  0  0  0  0  0  0  0  0  0
    2.6940    8.8670   17.0350 O   0  0  0  0  0  0  0  0  0  0  0  0
    0.3090    6.5740   19.6340 H   0  0  0  0  0  0  0  0  0  0  0  0
    1.4180    7.4180   20.7970 H   0  0  0  0  0  0  0  0  0  0  0  0
    4.5690    6.8100   16.7240 H   0  0  0  0  0  0  0  0  0  0  0  0
    4.2980    3.4530   19.4450 H   0  0  0  0  0  0  0  0  0  0  0  0
   -0.7390   11.0680   20.3590 C   0  0  0  0  0  0  0  0  0  0  0  0
   -1.4790   11.4270   19.2210 C   0  0  0  0  0  0  0  0  0  0  0  0
   -1.3140   10.7720   18.0030 C   0  0  0  0  0  0  0  0  0  0  0  0
   -0.4010    9.7250   17.8830 C   0  0  0  0  0  0  0  0  0  0  0  0
    0.3720    9.3220   18.9740 C   0  0  0  0  0  0  0  0  0  0  0  0
    0.1920   10.0120   20.1900 C   0  0  0  0  0  0  0  0  0  0  0  0
   -2.1880   12.2540   19.2760 H   0  0  0  0  0  0  0  0  0  0  0  0
   -1.8940   11.0840   17.1370 H   0  0  0  0  0  0  0  0  0  0  0  0
   -0.3110    9.2510   16.9110 H   0  0  0  0  0  0  0  0  0  0  0  0
    0.7800    9.7360   21.0610 H   0  0  0  0  0  0  0  0  0  0  0  0
   -0.9410   11.8060   21.7710 C   0  0  0  0  0  0  0  0  0  0  0  0
   -2.4000   12.0620   22.2550 C   0  0  0  0  0  0  0  0  0  0  0  0
   -2.0470   11.6320   23.6000 O   0  0  0  0  0  0  0  0  0  0  0  0
   -0.9170   10.9030   23.0410 C   0  0  0  0  0  0  0  0  0  0  0  0
   -3.1710   11.4090   21.8290 H   0  0  0  0  0  0  0  0  0  0  0  0
   -2.7610   13.0920   22.2410 H   0  0  0  0  0  0  0  0  0  0  0  0
   -0.0300   10.9750   23.6760 H   0  0  0  0  0  0  0  0  0  0  0  0
   -1.1720    9.8470   22.8970 H   0  0  0  0  0  0  0  0  0  0  0  0
    0.0200   13.0030   21.9330 C   0  0  0  0  0  0  0  0  0  0  0  0
   -0.2870   13.6210   22.7850 H   0  0  0  0  0  0  0  0  0  0  0  0
    1.0250   12.6440   22.1890 H   0  0  0  0  0  0  0  0  0  0  0  0
    1.2290   14.0040   19.9320 N   0  0  0  0  0  0  0  0  0  0  0  0
    0.8960   14.8920   18.9560 C   0  0  0  0  0  0  0  0  0  0  0  0
   -0.3510   15.2660   19.1120 N   0  0  0  0  0  0  0  0  0  0  0  0
   -0.8470   14.6100   20.2120 N   0  0  0  0  0  0  0  0  0  0  0  0
    0.1120   13.8600   20.7170 C   0  0  0  0  0  0  0  0  0  0  0  0
    1.5700   15.2270   18.1770 H   0  0  0  0  0  0  0  0  0  0  0  0
    2.5040   13.3580   20.0810 C   0  0  0  0  0  0  0  0  0  0  0  0
    2.4080   12.5820   20.8440 H   0  0  0  0  0  0  0  0  0  0  0  0
    3.2490   14.1000   20.3760 H   0  0  0  0  0  0  0  0  0  0  0  0
    2.8010   12.9070   19.1300 H   0  0  0  0  0  0  0  0  0  0  0  0
    2.1530    4.3410   20.9230 C   0  0  0  0  0  0  0  0  0  0  0  0
    2.6330    3.0860   21.1470 F   0  0  0  0  0  0  0  0  0  0  0  0
    2.2840    5.0110   22.1000 F   0  0  0  0  0  0  0  0  0  0  0  0
    0.8140    4.1930   20.7200 F   0  0  0  0  0  0  0  0  0  0  0  0
    5.7280    4.3720   17.3020 C   0  0  0  0  0  0  0  0  0  0  0  0
    5.5170    4.4590   16.2280 H   0  0  0  0  0  0  0  0  0  0  0  0
    5.7420    3.2980   17.5290 H   0  0  0  0  0  0  0  0  0  0  0  0
    7.0310    4.9730   17.6110 N   0  0  0  0  0  0  0  0  0  0  0  0
    7.4290    6.0250   16.6630 C   0  0  0  0  0  0  0  0  0  0  0  0
    7.3350    7.4410   17.2320 C   0  0  0  0  0  0  0  0  0  0  0  0
    8.1910    7.5980   18.4870 C   0  0  0  0  0  0  0  0  0  0  0  0
    8.2750    6.3060   19.2980 C   0  0  0  0  0  0  0  0  0  0  0  0
    7.0850    5.3910   19.0190 C   0  0  0  0  0  0  0  0  0  0  0  0
    8.4720    5.8340   16.3790 H   0  0  0  0  0  0  0  0  0  0  0  0
    6.8590    5.9800   15.7270 H   0  0  0  0  0  0  0  0  0  0  0  0
    7.6510    8.1720   16.4790 H   0  0  0  0  0  0  0  0  0  0  0  0
    6.2880    7.6690   17.4700 H   0  0  0  0  0  0  0  0  0  0  0  0
    7.7780    8.4050   19.1020 H   0  0  0  0  0  0  0  0  0  0  0  0
    9.2050    7.9110   18.2120 H   0  0  0  0  0  0  0  0  0  0  0  0
    8.3280    6.5420   20.3670 H   0  0  0  0  0  0  0  0  0  0  0  0
    9.2060    5.7800   19.0520 H   0  0  0  0  0  0  0  0  0  0  0  0
    6.1630    5.9130   19.3090 H   0  0  0  0  0  0  0  0  0  0  0  0
    7.1660    4.5010   19.6530 H   0  0  0  0  0  0  0  0  0  0  0  0
  1 19  1  0  0  0  0
  1  2  1  0  0  0  0
  2 12  1  0  0  0  0
  3  2  1  0  0  0  0
  3  8  1  0  0  0  0
  4  3  2  0  0  0  0
  5  6  2  0  0  0  0
  5  4  1  0  0  0  0
  6  7  1  0  0  0  0
  7 14  1  0  0  0  0
  7  8  2  0  0  0  0
  8 46  1  0  0  0  0
  9  4  1  0  0  0  0
  9  1  1  0  0  0  0
 10  9  2  0  0  0  0
 11  2  1  0  0  0  0
 13  5  1  0  0  0  0
 15 25  1  0  0  0  0
 16 21  1  0  0  0  0
 16 15  2  0  0  0  0
 17 16  1  0  0  0  0
 18 17  2  0  0  0  0
 18 19  1  0  0  0  0
 19 20  2  0  0  0  0
 20 15  1  0  0  0  0
 20 24  1  0  0  0  0
 22 17  1  0  0  0  0
 23 18  1  0  0  0  0
 25 33  1  0  0  0  0
 25 26  1  0  0  0  0
 25 28  1  0  0  0  0
 26 27  1  0  0  0  0
 28 27  1  0  0  0  0
 28 31  1  0  0  0  0
 29 26  1  0  0  0  0
 30 26  1  0  0  0  0
 32 28  1  0  0  0  0
 33 35  1  0  0  0  0
 33 34  1  0  0  0  0
 36 42  1  0  0  0  0
 36 40  1  0  0  0  0
 37 38  2  0  0  0  0
 37 36  1  0  0  0  0
 38 39  1  0  0  0  0
 39 40  2  0  0  0  0
 40 33  1  0  0  0  0
 41 37  1  0  0  0  0
 42 44  1  0  0  0  0
 42 43  1  0  0  0  0
 45 42  1  0  0  0  0
 46 47  1  0  0  0  0
 46 48  1  0  0  0  0
 49 46  1  0  0  0  0
 50 52  1  0  0  0  0
 50 53  1  0  0  0  0
 50  6  1  0  0  0  0
 51 50  1  0  0  0  0
 53 58  1  0  0  0  0
 54 55  1  0  0  0  0
 54 53  1  0  0  0  0
 55 62  1  0  0  0  0
 55 56  1  0  0  0  0
 56 63  1  0  0  0  0
 56 57  1  0  0  0  0
 57 65  1  0  0  0  0
 58 57  1  0  0  0  0
 58 67  1  0  0  0  0
 58 68  1  0  0  0  0
 59 54  1  0  0  0  0
 60 54  1  0  0  0  0
 61 55  1  0  0  0  0
 64 56  1  0  0  0  0
 66 57  1  0  0  0  0
M  END
>  <MODEL>
21

>  <REMARK>
 VINA RESULT:    -7.299      2.130      3.278
 INTER + INTRA:         -11.663
 INTER:                 -10.520
 INTRA:                  -1.142
 UNBOUND:                -1.163
  Name = 
  8 active torsions:
  status: ('A' for Active; 'I' for Inactive)
    1  A    between atoms: C_1  and  N_2
    2  A    between atoms: C_6  and  C_7
    3  A    between atoms: C_7  and  C_8
    4  A    between atoms: C_8  and  C_12
    5  A    between atoms: C_16  and  N_18
    6  A    between atoms: C_23  and  C_24
    7  A    between atoms: C_24  and  N_25
    8  A    between atoms: C_32  and  C_33
                            x       y       z     vdW  Elec       q    Type
                         _______ _______ _______ _____ _____    ______ ____

>  <TORSDO>
F 8

$$$$
=
 OpenBabel07192307433D

 68 73  0  0  0  0  0  0  0  0999 V2000
    1.7040    8.7780   18.6430 N   0  0  0  0  0  0  0  0  0  0  0  0
    2.7370    8.4830   17.6610 C   0  0  0  0  0  0  0  0  0  0  0  0
    3.3280    7.1990   18.1420 C   0  0  0  0  0  0  0  0  0  0  0  0
    2.6890    6.8020   19.3090 C   0  0  0  0  0  0  0  0  0  0  0  0
    3.0370    5.6530   19.9940 C   0  0  0  0  0  0  0  0  0  0  0  0
    4.0760    4.8620   19.4770 C   0  0  0  0  0  0  0  0  0  0  0  0
    4.7270    5.2640   18.2870 C   0  0  0  0  0  0  0  0  0  0  0  0
    4.3610    6.4380   17.6010 C   0  0  0  0  0  0  0  0  0  0  0  0
    1.6590    7.7950   19.6400 C   0  0  0  0  0  0  0  0  0  0  0  0
    0.9610    7.6900   20.6320 O   0  0  0  0  0  0  0  0  0  0  0  0
    3.4900    9.2780   17.6680 H   0  0  0  0  0  0  0  0  0  0  0  0
    2.2830    8.3580   16.6710 H   0  0  0  0  0  0  0  0  0  0  0  0
    2.5150    5.3750   20.9060 H   0  0  0  0  0  0  0  0  0  0  0  0
    5.5360    4.6460   17.8920 H   0  0  0  0  0  0  0  0  0  0  0  0
    0.5440   12.3440   19.1390 C   0  0  0  0  0  0  0  0  0  0  0  0
   -0.6830   12.2740   18.4590 C   0  0  0  0  0  0  0  0  0  0  0  0
   -1.1190   11.0980   17.8530 C   0  0  0  0  0  0  0  0  0  0  0  0
   -0.3390    9.9430   17.9130 C   0  0  0  0  0  0  0  0  0  0  0  0
    0.8940    9.9460   18.5670 C   0  0  0  0  0  0  0  0  0  0  0  0
    1.3140   11.1540   19.1590 C   0  0  0  0  0  0  0  0  0  0  0  0
   -1.3080   13.1640   18.3780 H   0  0  0  0  0  0  0  0  0  0  0  0
   -2.0690   11.0810   17.3230 H   0  0  0  0  0  0  0  0  0  0  0  0
   -0.7250    9.0560   17.4220 H   0  0  0  0  0  0  0  0  0  0  0  0
    2.2720   11.2020   19.6700 H   0  0  0  0  0  0  0  0  0  0  0  0
    1.0410   13.6920   19.8560 C   0  0  0  0  0  0  0  0  0  0  0  0
    2.4410   13.6760   20.5400 C   0  0  0  0  0  0  0  0  0  0  0  0
    2.7490   14.9830   19.9780 O   0  0  0  0  0  0  0  0  0  0  0  0
    1.7450   14.7470   18.9510 C   0  0  0  0  0  0  0  0  0  0  0  0
    3.1480   12.9210   20.1760 H   0  0  0  0  0  0  0  0  0  0  0  0
    2.4670   13.6890   21.6310 H   0  0  0  0  0  0  0  0  0  0  0  0
    1.1750   15.6510   18.7200 H   0  0  0  0  0  0  0  0  0  0  0  0
    2.2120   14.3720   18.0330 H   0  0  0  0  0  0  0  0  0  0  0  0
   -0.0830   14.3460   20.6860 C   0  0  0  0  0  0  0  0  0  0  0  0
    0.3270   15.1460   21.3150 H   0  0  0  0  0  0  0  0  0  0  0  0
   -0.7980   14.8470   20.0190 H   0  0  0  0  0  0  0  0  0  0  0  0
   -2.1910   13.2550   21.5990 N   0  0  0  0  0  0  0  0  0  0  0  0
   -2.4490   12.2920   22.5260 C   0  0  0  0  0  0  0  0  0  0  0  0
   -1.3190   11.8380   23.0100 N   0  0  0  0  0  0  0  0  0  0  0  0
   -0.2980   12.5140   22.3870 N   0  0  0  0  0  0  0  0  0  0  0  0
   -0.8250   13.3820   21.5470 C   0  0  0  0  0  0  0  0  0  0  0  0
   -3.4410   11.9650   22.8080 H   0  0  0  0  0  0  0  0  0  0  0  0
   -3.1770   13.9740   20.8380 C   0  0  0  0  0  0  0  0  0  0  0  0
   -3.3770   14.9210   21.3440 H   0  0  0  0  0  0  0  0  0  0  0  0
   -4.0850   13.3720   20.7710 H   0  0  0  0  0  0  0  0  0  0  0  0
   -2.7950   14.1660   19.8310 H   0  0  0  0  0  0  0  0  0  0  0  0
    5.0550    6.8660   16.3360 C   0  0  0  0  0  0  0  0  0  0  0  0
    5.6360    5.8180   15.6870 F   0  0  0  0  0  0  0  0  0  0  0  0
    4.2320    7.4600   15.4300 F   0  0  0  0  0  0  0  0  0  0  0  0
    6.0600    7.7540   16.5740 F   0  0  0  0  0  0  0  0  0  0  0  0
    4.5200    3.6100   20.2100 C   0  0  0  0  0  0  0  0  0  0  0  0
    4.6580    3.9070   21.2580 H   0  0  0  0  0  0  0  0  0  0  0  0
    5.5030    3.2800   19.8500 H   0  0  0  0  0  0  0  0  0  0  0  0
    3.5510    2.5110   20.1210 N   0  0  0  0  0  0  0  0  0  0  0  0
    2.4990    2.5750   21.1470 C   0  0  0  0  0  0  0  0  0  0  0  0
    1.1330    3.0010   20.6110 C   0  0  0  0  0  0  0  0  0  0  0  0
    0.6480    2.0640   19.5060 C   0  0  0  0  0  0  0  0  0  0  0  0
    1.8010    1.4930   18.6820 C   0  0  0  0  0  0  0  0  0  0  0  0
    3.0350    2.3890   18.7500 C   0  0  0  0  0  0  0  0  0  0  0  0
    2.4030    1.5720   21.5820 H   0  0  0  0  0  0  0  0  0  0  0  0
    2.7720    3.2300   21.9840 H   0  0  0  0  0  0  0  0  0  0  0  0
    0.3970    3.0210   21.4230 H   0  0  0  0  0  0  0  0  0  0  0  0
    1.1970    4.0250   20.2210 H   0  0  0  0  0  0  0  0  0  0  0  0
   -0.0490    2.6060   18.8570 H   0  0  0  0  0  0  0  0  0  0  0  0
    0.0790    1.2340   19.9410 H   0  0  0  0  0  0  0  0  0  0  0  0
    1.4840    1.3640   17.6400 H   0  0  0  0  0  0  0  0  0  0  0  0
    2.0550    0.4910   19.0530 H   0  0  0  0  0  0  0  0  0  0  0  0
    2.7790    3.3740   18.3360 H   0  0  0  0  0  0  0  0  0  0  0  0
    3.8180    1.9630   18.1110 H   0  0  0  0  0  0  0  0  0  0  0  0
  1  9  1  0  0  0  0
  2 11  1  0  0  0  0
  2  3  1  0  0  0  0
  2  1  1  0  0  0  0
  3  4  1  0  0  0  0
  4  9  1  0  0  0  0
  4  5  2  0  0  0  0
  5 13  1  0  0  0  0
  6  5  1  0  0  0  0
  6 50  1  0  0  0  0
  7  6  2  0  0  0  0
  8  3  2  0  0  0  0
  8  7  1  0  0  0  0
  9 10  2  0  0  0  0
 12  2  1  0  0  0  0
 14  7  1  0  0  0  0
 15 20  1  0  0  0  0
 15 25  1  0  0  0  0
 16 15  2  0  0  0  0
 17 18  2  0  0  0  0
 17 16  1  0  0  0  0
 18 19  1  0  0  0  0
 19  1  1  0  0  0  0
 19 20  2  0  0  0  0
 20 24  1  0  0  0  0
 21 16  1  0  0  0  0
 22 17  1  0  0  0  0
 23 18  1  0  0  0  0
 25 26  1  0  0  0  0
 25 33  1  0  0  0  0
 26 30  1  0  0  0  0
 27 26  1  0  0  0  0
 28 25  1  0  0  0  0
 28 27  1  0  0  0  0
 29 26  1  0  0  0  0
 31 28  1  0  0  0  0
 32 28  1  0  0  0  0
 33 34  1  0  0  0  0
 33 40  1  0  0  0  0
 35 33  1  0  0  0  0
 36 37  1  0  0  0  0
 37 41  1  0  0  0  0
 37 38  2  0  0  0  0
 39 38  1  0  0  0  0
 40 36  1  0  0  0  0
 40 39  2  0  0  0  0
 42 43  1  0  0  0  0
 42 36  1  0  0  0  0
 44 42  1  0  0  0  0
 45 42  1  0  0  0  0
 46 49  1  0  0  0  0
 46  8  1  0  0  0  0
 47 46  1  0  0  0  0
 48 46  1  0  0  0  0
 50 51  1  0  0  0  0
 52 50  1  0  0  0  0
 53 50  1  0  0  0  0
 53 54  1  0  0  0  0
 54 59  1  0  0  0  0
 54 60  1  0  0  0  0
 55 54  1  0  0  0  0
 55 61  1  0  0  0  0
 56 64  1  0  0  0  0
 56 55  1  0  0  0  0
 57 58  1  0  0  0  0
 57 66  1  0  0  0  0
 57 56  1  0  0  0  0
 58 53  1  0  0  0  0
 62 55  1  0  0  0  0
 63 56  1  0  0  0  0
 65 57  1  0  0  0  0
 67 58  1  0  0  0  0
 68 58  1  0  0  0  0
M  END
>  <MODEL>
22

>  <REMARK>
 VINA RESULT:    -7.285      3.255      4.882
 INTER + INTRA:         -11.643
 INTER:                 -10.724
 INTRA:                  -0.919
 UNBOUND:                -1.163
  Name = 
  8 active torsions:
  status: ('A' for Active; 'I' for Inactive)
    1  A    between atoms: C_1  and  N_2
    2  A    between atoms: C_6  and  C_7
    3  A    between atoms: C_7  and  C_8
    4  A    between atoms: C_8  and  C_12
    5  A    between atoms: C_16  and  N_18
    6  A    between atoms: C_23  and  C_24
    7  A    between atoms: C_24  and  N_25
    8  A    between atoms: C_32  and  C_33
                            x       y       z     vdW  Elec       q    Type
                         _______ _______ _______ _____ _____    ______ ____

>  <TORSDO>
F 8

$$$$
=
 OpenBabel07192307433D

 68 73  0  0  0  0  0  0  0  0999 V2000
    1.9900    7.8210   19.0480 N   0  0  0  0  0  0  0  0  0  0  0  0
    1.4410    7.9390   20.3910 C   0  0  0  0  0  0  0  0  0  0  0  0
    1.0250    9.3710   20.4800 C   0  0  0  0  0  0  0  0  0  0  0  0
    1.3240   10.0160   19.2870 C   0  0  0  0  0  0  0  0  0  0  0  0
    1.0670   11.3590   19.0820 C   0  0  0  0  0  0  0  0  0  0  0  0
    0.4750   12.0870   20.1270 C   0  0  0  0  0  0  0  0  0  0  0  0
    0.1670   11.4310   21.3420 C   0  0  0  0  0  0  0  0  0  0  0  0
    0.4370   10.0620   21.5360 C   0  0  0  0  0  0  0  0  0  0  0  0
    1.9390    9.0460   18.3710 C   0  0  0  0  0  0  0  0  0  0  0  0
    2.3110    9.3630   17.2570 O   0  0  0  0  0  0  0  0  0  0  0  0
    2.2190    7.7200   21.1290 H   0  0  0  0  0  0  0  0  0  0  0  0
    0.5760    7.2740   20.4990 H   0  0  0  0  0  0  0  0  0  0  0  0
    1.3170   11.8300   18.1350 H   0  0  0  0  0  0  0  0  0  0  0  0
   -0.2900   12.0030   22.1510 H   0  0  0  0  0  0  0  0  0  0  0  0
    4.4160    5.3660   17.5000 C   0  0  0  0  0  0  0  0  0  0  0  0
    3.6170    4.2120   17.5390 C   0  0  0  0  0  0  0  0  0  0  0  0
    2.3240    4.2320   18.0580 C   0  0  0  0  0  0  0  0  0  0  0  0
    1.7820    5.4170   18.5530 C   0  0  0  0  0  0  0  0  0  0  0  0
    2.5250    6.5990   18.5510 C   0  0  0  0  0  0  0  0  0  0  0  0
    3.8340    6.5450   18.0320 C   0  0  0  0  0  0  0  0  0  0  0  0
    4.0180    3.2650   17.1760 H   0  0  0  0  0  0  0  0  0  0  0  0
    1.7370    3.3170   18.0850 H   0  0  0  0  0  0  0  0  0  0  0  0
    0.7720    5.3770   18.9480 H   0  0  0  0  0  0  0  0  0  0  0  0
    4.4500    7.4400   18.0200 H   0  0  0  0  0  0  0  0  0  0  0  0
    5.8990    5.3520   16.8850 C   0  0  0  0  0  0  0  0  0  0  0  0
    7.0770    5.7630   17.8180 C   0  0  0  0  0  0  0  0  0  0  0  0
    7.8790    4.6540   17.3220 O   0  0  0  0  0  0  0  0  0  0  0  0
    6.6520    3.9890   16.9080 C   0  0  0  0  0  0  0  0  0  0  0  0
    6.8970    5.6600   18.8950 H   0  0  0  0  0  0  0  0  0  0  0  0
    7.5560    6.7250   17.6290 H   0  0  0  0  0  0  0  0  0  0  0  0
    6.7680    3.4770   15.9480 H   0  0  0  0  0  0  0  0  0  0  0  0
    6.3320    3.2640   17.6650 H   0  0  0  0  0  0  0  0  0  0  0  0
    5.9370    5.9740   15.4730 C   0  0  0  0  0  0  0  0  0  0  0  0
    5.0660    6.6230   15.3210 H   0  0  0  0  0  0  0  0  0  0  0  0
    6.8060    6.6400   15.3810 H   0  0  0  0  0  0  0  0  0  0  0  0
    7.0000    4.8450   13.4570 N   0  0  0  0  0  0  0  0  0  0  0  0
    6.6410    3.8270   12.6270 C   0  0  0  0  0  0  0  0  0  0  0  0
    5.4900    3.3340   13.0140 N   0  0  0  0  0  0  0  0  0  0  0  0
    5.0860    4.0400   14.1210 N   0  0  0  0  0  0  0  0  0  0  0  0
    5.9900    4.9640   14.3790 C   0  0  0  0  0  0  0  0  0  0  0  0
    7.2280    3.4900   11.7830 H   0  0  0  0  0  0  0  0  0  0  0  0
    8.2080    5.6190   13.3640 C   0  0  0  0  0  0  0  0  0  0  0  0
    8.9340    5.0510   12.7780 H   0  0  0  0  0  0  0  0  0  0  0  0
    8.5880    5.8100   14.3690 H   0  0  0  0  0  0  0  0  0  0  0  0
    7.9970    6.5710   12.8700 H   0  0  0  0  0  0  0  0  0  0  0  0
    0.1110    9.3660   22.8290 C   0  0  0  0  0  0  0  0  0  0  0  0
    1.2300    8.9680   23.4970 F   0  0  0  0  0  0  0  0  0  0  0  0
   -0.5970   10.1310   23.7030 F   0  0  0  0  0  0  0  0  0  0  0  0
   -0.6240    8.2360   22.6350 F   0  0  0  0  0  0  0  0  0  0  0  0
    0.2030   13.5710   19.9650 C   0  0  0  0  0  0  0  0  0  0  0  0
    0.8190   13.8990   19.1170 H   0  0  0  0  0  0  0  0  0  0  0  0
    0.5630   14.1270   20.8410 H   0  0  0  0  0  0  0  0  0  0  0  0
   -1.2090   13.8790   19.7120 N   0  0  0  0  0  0  0  0  0  0  0  0
   -1.8690   12.9090   18.8240 C   0  0  0  0  0  0  0  0  0  0  0  0
   -2.8410   11.9720   19.5400 C   0  0  0  0  0  0  0  0  0  0  0  0
   -3.9340   12.7510   20.2710 C   0  0  0  0  0  0  0  0  0  0  0  0
   -3.4370   14.0990   20.7890 C   0  0  0  0  0  0  0  0  0  0  0  0
   -1.9220   14.1040   20.9780 C   0  0  0  0  0  0  0  0  0  0  0  0
   -2.4290   13.4810   18.0720 H   0  0  0  0  0  0  0  0  0  0  0  0
   -1.1490   12.3070   18.2560 H   0  0  0  0  0  0  0  0  0  0  0  0
   -3.3010   11.2840   18.8220 H   0  0  0  0  0  0  0  0  0  0  0  0
   -2.2880   11.3530   20.2580 H   0  0  0  0  0  0  0  0  0  0  0  0
   -4.3110   12.1420   21.1010 H   0  0  0  0  0  0  0  0  0  0  0  0
   -4.7860   12.9200   19.6020 H   0  0  0  0  0  0  0  0  0  0  0  0
   -3.9370   14.3410   21.7340 H   0  0  0  0  0  0  0  0  0  0  0  0
   -3.7190   14.8900   20.0810 H   0  0  0  0  0  0  0  0  0  0  0  0
   -1.6570   13.3390   21.7200 H   0  0  0  0  0  0  0  0  0  0  0  0
   -1.6190   15.0730   21.3910 H   0  0  0  0  0  0  0  0  0  0  0  0
  1  2  1  0  0  0  0
  2  3  1  0  0  0  0
  2 12  1  0  0  0  0
  2 11  1  0  0  0  0
  3  8  1  0  0  0  0
  4  3  2  0  0  0  0
  5  4  1  0  0  0  0
  5  6  2  0  0  0  0
  6  7  1  0  0  0  0
  7  8  2  0  0  0  0
  7 14  1  0  0  0  0
  8 46  1  0  0  0  0
  9  1  1  0  0  0  0
  9  4  1  0  0  0  0
 10  9  2  0  0  0  0
 13  5  1  0  0  0  0
 15 16  2  0  0  0  0
 15 20  1  0  0  0  0
 16 17  1  0  0  0  0
 17 22  1  0  0  0  0
 17 18  2  0  0  0  0
 18 23  1  0  0  0  0
 19 18  1  0  0  0  0
 19  1  1  0  0  0  0
 20 19  2  0  0  0  0
 21 16  1  0  0  0  0
 24 20  1  0  0  0  0
 25 28  1  0  0  0  0
 25 15  1  0  0  0  0
 25 26  1  0  0  0  0
 26 29  1  0  0  0  0
 27 26  1  0  0  0  0
 28 27  1  0  0  0  0
 28 32  1  0  0  0  0
 30 26  1  0  0  0  0
 31 28  1  0  0  0  0
 33 25  1  0  0  0  0
 34 33  1  0  0  0  0
 35 33  1  0  0  0  0
 36 40  1  0  0  0  0
 37 38  2  0  0  0  0
 37 36  1  0  0  0  0
 38 39  1  0  0  0  0
 39 40  2  0  0  0  0
 40 33  1  0  0  0  0
 41 37  1  0  0  0  0
 42 36  1  0  0  0  0
 42 44  1  0  0  0  0
 43 42  1  0  0  0  0
 45 42  1  0  0  0  0
 46 47  1  0  0  0  0
 46 48  1  0  0  0  0
 49 46  1  0  0  0  0
 50  6  1  0  0  0  0
 50 52  1  0  0  0  0
 51 50  1  0  0  0  0
 53 50  1  0  0  0  0
 53 58  1  0  0  0  0
 54 55  1  0  0  0  0
 54 53  1  0  0  0  0
 55 62  1  0  0  0  0
 55 56  1  0  0  0  0
 56 57  1  0  0  0  0
 56 63  1  0  0  0  0
 57 58  1  0  0  0  0
 57 65  1  0  0  0  0
 58 68  1  0  0  0  0
 58 67  1  0  0  0  0
 59 54  1  0  0  0  0
 60 54  1  0  0  0  0
 61 55  1  0  0  0  0
 64 56  1  0  0  0  0
 66 57  1  0  0  0  0
M  END
>  <MODEL>
23

>  <REMARK>
 VINA RESULT:    -7.220      2.773      9.406
 INTER + INTRA:         -11.548
 INTER:                 -10.492
 INTRA:                  -1.056
 UNBOUND:                -1.163
  Name = 
  8 active torsions:
  status: ('A' for Active; 'I' for Inactive)
    1  A    between atoms: C_1  and  N_2
    2  A    between atoms: C_6  and  C_7
    3  A    between atoms: C_7  and  C_8
    4  A    between atoms: C_8  and  C_12
    5  A    between atoms: C_16  and  N_18
    6  A    between atoms: C_23  and  C_24
    7  A    between atoms: C_24  and  N_25
    8  A    between atoms: C_32  and  C_33
                            x       y       z     vdW  Elec       q    Type
                         _______ _______ _______ _____ _____    ______ ____

>  <TORSDO>
F 8

$$$$
=
 OpenBabel07192307433D

 68 73  0  0  0  0  0  0  0  0999 V2000
    1.7410    8.7940   18.8050 N   0  0  0  0  0  0  0  0  0  0  0  0
    2.7230    8.5040   17.7700 C   0  0  0  0  0  0  0  0  0  0  0  0
    3.3120    7.1990   18.1940 C   0  0  0  0  0  0  0  0  0  0  0  0
    2.7190    6.7860   19.3800 C   0  0  0  0  0  0  0  0  0  0  0  0
    3.0760    5.6160   20.0220 C   0  0  0  0  0  0  0  0  0  0  0  0
    4.0760    4.8190   19.4410 C   0  0  0  0  0  0  0  0  0  0  0  0
    4.6800    5.2370   18.2320 C   0  0  0  0  0  0  0  0  0  0  0  0
    4.3050    6.4340   17.5890 C   0  0  0  0  0  0  0  0  0  0  0  0
    1.7220    7.7890   19.7800 C   0  0  0  0  0  0  0  0  0  0  0  0
    1.0690    7.6720   20.7990 O   0  0  0  0  0  0  0  0  0  0  0  0
    3.4900    9.2860   17.7600 H   0  0  0  0  0  0  0  0  0  0  0  0
    2.2230    8.4100   16.7990 H   0  0  0  0  0  0  0  0  0  0  0  0
    2.5910    5.3250   20.9510 H   0  0  0  0  0  0  0  0  0  0  0  0
    5.4590    4.6150   17.7860 H   0  0  0  0  0  0  0  0  0  0  0  0
    0.5950   12.3180   19.5620 C   0  0  0  0  0  0  0  0  0  0  0  0
   -0.5920   12.3310   18.8120 C   0  0  0  0  0  0  0  0  0  0  0  0
   -1.0060   11.2230   18.0760 C   0  0  0  0  0  0  0  0  0  0  0  0
   -0.2440   10.0550   18.0720 C   0  0  0  0  0  0  0  0  0  0  0  0
    0.9500    9.9770   18.7910 C   0  0  0  0  0  0  0  0  0  0  0  0
    1.3490   11.1180   19.5150 C   0  0  0  0  0  0  0  0  0  0  0  0
   -1.2010   13.2350   18.7790 H   0  0  0  0  0  0  0  0  0  0  0  0
   -1.9240   11.2700   17.4950 H   0  0  0  0  0  0  0  0  0  0  0  0
   -0.6120    9.2220   17.4810 H   0  0  0  0  0  0  0  0  0  0  0  0
    2.2770   11.1030   20.0810 H   0  0  0  0  0  0  0  0  0  0  0  0
    1.0660   13.5860   20.4280 C   0  0  0  0  0  0  0  0  0  0  0  0
    0.4400   14.9710   20.0870 C   0  0  0  0  0  0  0  0  0  0  0  0
    0.2660   15.2600   21.5030 O   0  0  0  0  0  0  0  0  0  0  0  0
    0.3170   13.8310   21.7730 C   0  0  0  0  0  0  0  0  0  0  0  0
   -0.5290   14.9490   19.5740 H   0  0  0  0  0  0  0  0  0  0  0  0
    1.0820   15.7070   19.6000 H   0  0  0  0  0  0  0  0  0  0  0  0
    0.8700   13.6070   22.6890 H   0  0  0  0  0  0  0  0  0  0  0  0
   -0.6950   13.4160   21.8530 H   0  0  0  0  0  0  0  0  0  0  0  0
    2.5940   13.5950   20.6440 C   0  0  0  0  0  0  0  0  0  0  0  0
    2.8420   14.1270   21.5700 H   0  0  0  0  0  0  0  0  0  0  0  0
    2.9560   12.5700   20.7980 H   0  0  0  0  0  0  0  0  0  0  0  0
    4.5690   14.8280   19.6200 N   0  0  0  0  0  0  0  0  0  0  0  0
    4.8830   15.2670   18.3700 C   0  0  0  0  0  0  0  0  0  0  0  0
    3.9300   14.9270   17.5360 N   0  0  0  0  0  0  0  0  0  0  0  0
    2.9720   14.2520   18.2520 N   0  0  0  0  0  0  0  0  0  0  0  0
    3.3500   14.2060   19.5140 C   0  0  0  0  0  0  0  0  0  0  0  0
    5.7850   15.8100   18.1210 H   0  0  0  0  0  0  0  0  0  0  0  0
    5.3770   14.9950   20.7970 C   0  0  0  0  0  0  0  0  0  0  0  0
    6.4110   15.1590   20.4820 H   0  0  0  0  0  0  0  0  0  0  0  0
    5.2990   14.0980   21.4140 H   0  0  0  0  0  0  0  0  0  0  0  0
    5.0230   15.8580   21.3680 H   0  0  0  0  0  0  0  0  0  0  0  0
    4.9490    6.8780   16.3040 C   0  0  0  0  0  0  0  0  0  0  0  0
    5.4420    5.8310   15.5850 F   0  0  0  0  0  0  0  0  0  0  0  0
    4.1080    7.5460   15.4690 F   0  0  0  0  0  0  0  0  0  0  0  0
    6.0070    7.7090   16.5190 F   0  0  0  0  0  0  0  0  0  0  0  0
    4.5290    3.5420   20.1240 C   0  0  0  0  0  0  0  0  0  0  0  0
    4.7240    3.8140   21.1700 H   0  0  0  0  0  0  0  0  0  0  0  0
    5.4870    3.2020   19.7100 H   0  0  0  0  0  0  0  0  0  0  0  0
    3.5360    2.4640   20.0590 N   0  0  0  0  0  0  0  0  0  0  0  0
    2.5180    2.5420   21.1180 C   0  0  0  0  0  0  0  0  0  0  0  0
    1.1450    3.0000   20.6280 C   0  0  0  0  0  0  0  0  0  0  0  0
    0.6060    2.0810   19.5330 C   0  0  0  0  0  0  0  0  0  0  0  0
    1.7200    1.4930   18.6690 C   0  0  0  0  0  0  0  0  0  0  0  0
    2.9740    2.3630   18.7030 C   0  0  0  0  0  0  0  0  0  0  0  0
    2.4150    1.5380   21.5490 H   0  0  0  0  0  0  0  0  0  0  0  0
    2.8310    3.1860   21.9500 H   0  0  0  0  0  0  0  0  0  0  0  0
    0.4360    3.0290   21.4630 H   0  0  0  0  0  0  0  0  0  0  0  0
    1.2180    4.0250   20.2430 H   0  0  0  0  0  0  0  0  0  0  0  0
   -0.0990    2.6430   18.9100 H   0  0  0  0  0  0  0  0  0  0  0  0
    0.0340    1.2600   19.9810 H   0  0  0  0  0  0  0  0  0  0  0  0
    1.3680    1.3780   17.6370 H   0  0  0  0  0  0  0  0  0  0  0  0
    1.9650    0.4840   19.0250 H   0  0  0  0  0  0  0  0  0  0  0  0
    2.7260    3.3560   18.3050 H   0  0  0  0  0  0  0  0  0  0  0  0
    3.7280    1.9260   18.0370 H   0  0  0  0  0  0  0  0  0  0  0  0
  1  9  1  0  0  0  0
  2  3  1  0  0  0  0
  2  1  1  0  0  0  0
  3  4  1  0  0  0  0
  4  9  1  0  0  0  0
  4  5  2  0  0  0  0
  5 13  1  0  0  0  0
  6  5  1  0  0  0  0
  6 50  1  0  0  0  0
  7  6  2  0  0  0  0
  8  3  2  0  0  0  0
  8  7  1  0  0  0  0
  9 10  2  0  0  0  0
 11  2  1  0  0  0  0
 12  2  1  0  0  0  0
 14  7  1  0  0  0  0
 15 25  1  0  0  0  0
 16 15  2  0  0  0  0
 17 16  1  0  0  0  0
 18 17  2  0  0  0  0
 18 19  1  0  0  0  0
 19  1  1  0  0  0  0
 19 20  2  0  0  0  0
 20 15  1  0  0  0  0
 20 24  1  0  0  0  0
 21 16  1  0  0  0  0
 22 17  1  0  0  0  0
 23 18  1  0  0  0  0
 25 33  1  0  0  0  0
 25 28  1  0  0  0  0
 26 25  1  0  0  0  0
 26 27  1  0  0  0  0
 27 28  1  0  0  0  0
 28 32  1  0  0  0  0
 28 31  1  0  0  0  0
 29 26  1  0  0  0  0
 30 26  1  0  0  0  0
 33 35  1  0  0  0  0
 33 34  1  0  0  0  0
 36 42  1  0  0  0  0
 37 36  1  0  0  0  0
 38 39  1  0  0  0  0
 38 37  2  0  0  0  0
 39 40  2  0  0  0  0
 40 36  1  0  0  0  0
 40 33  1  0  0  0  0
 41 37  1  0  0  0  0
 42 45  1  0  0  0  0
 42 44  1  0  0  0  0
 43 42  1  0  0  0  0
 46 49  1  0  0  0  0
 46  8  1  0  0  0  0
 47 46  1  0  0  0  0
 48 46  1  0  0  0  0
 50 51  1  0  0  0  0
 52 50  1  0  0  0  0
 53 50  1  0  0  0  0
 53 54  1  0  0  0  0
 54 59  1  0  0  0  0
 54 60  1  0  0  0  0
 55 54  1  0  0  0  0
 55 61  1  0  0  0  0
 56 64  1  0  0  0  0
 56 55  1  0  0  0  0
 57 58  1  0  0  0  0
 57 66  1  0  0  0  0
 57 56  1  0  0  0  0
 58 53  1  0  0  0  0
 62 55  1  0  0  0  0
 63 56  1  0  0  0  0
 65 57  1  0  0  0  0
 67 58  1  0  0  0  0
 68 58  1  0  0  0  0
M  END
>  <MODEL>
24

>  <REMARK>
 VINA RESULT:    -7.199      3.747      5.580
 INTER + INTRA:         -11.519
 INTER:                 -10.710
 INTRA:                  -0.809
 UNBOUND:                -1.163
  Name = 
  8 active torsions:
  status: ('A' for Active; 'I' for Inactive)
    1  A    between atoms: C_1  and  N_2
    2  A    between atoms: C_6  and  C_7
    3  A    between atoms: C_7  and  C_8
    4  A    between atoms: C_8  and  C_12
    5  A    between atoms: C_16  and  N_18
    6  A    between atoms: C_23  and  C_24
    7  A    between atoms: C_24  and  N_25
    8  A    between atoms: C_32  and  C_33
                            x       y       z     vdW  Elec       q    Type
                         _______ _______ _______ _____ _____    ______ ____

>  <TORSDO>
F 8

$$$$
=
 OpenBabel07192307433D

 68 73  0  0  0  0  0  0  0  0999 V2000
    0.8930    9.1180   18.2230 N   0  0  0  0  0  0  0  0  0  0  0  0
   -0.2430    9.2600   17.3240 C   0  0  0  0  0  0  0  0  0  0  0  0
   -1.1230   10.2480   18.0170 C   0  0  0  0  0  0  0  0  0  0  0  0
   -0.5390   10.6270   19.2180 C   0  0  0  0  0  0  0  0  0  0  0  0
   -1.1350   11.5220   20.0860 C   0  0  0  0  0  0  0  0  0  0  0  0
   -2.3790   12.0660   19.7260 C   0  0  0  0  0  0  0  0  0  0  0  0
   -2.9750   11.6820   18.5020 C   0  0  0  0  0  0  0  0  0  0  0  0
   -2.3540   10.7680   17.6280 C   0  0  0  0  0  0  0  0  0  0  0  0
    0.7390    9.9170   19.3630 C   0  0  0  0  0  0  0  0  0  0  0  0
    1.4460   10.0610   20.3430 O   0  0  0  0  0  0  0  0  0  0  0  0
   -0.7540    8.2980   17.2200 H   0  0  0  0  0  0  0  0  0  0  0  0
    0.0960    9.6500   16.3570 H   0  0  0  0  0  0  0  0  0  0  0  0
   -0.6480   11.7940   21.0190 H   0  0  0  0  0  0  0  0  0  0  0  0
   -3.9430   12.1060   18.2290 H   0  0  0  0  0  0  0  0  0  0  0  0
    2.8590    5.9180   17.7700 C   0  0  0  0  0  0  0  0  0  0  0  0
    4.1010    6.4700   17.4160 C   0  0  0  0  0  0  0  0  0  0  0  0
    4.2920    7.8470   17.3240 C   0  0  0  0  0  0  0  0  0  0  0  0
    3.2410    8.7230   17.5910 C   0  0  0  0  0  0  0  0  0  0  0  0
    1.9790    8.2410   17.9420 C   0  0  0  0  0  0  0  0  0  0  0  0
    1.8130    6.8430   18.0140 C   0  0  0  0  0  0  0  0  0  0  0  0
    4.9380    5.8110   17.1820 H   0  0  0  0  0  0  0  0  0  0  0  0
    5.2630    8.2410   17.0340 H   0  0  0  0  0  0  0  0  0  0  0  0
    3.4440    9.7860   17.5030 H   0  0  0  0  0  0  0  0  0  0  0  0
    0.8440    6.4260   18.2750 H   0  0  0  0  0  0  0  0  0  0  0  0
    2.6400    4.3330   17.8980 C   0  0  0  0  0  0  0  0  0  0  0  0
    2.9370    3.4550   16.6440 C   0  0  0  0  0  0  0  0  0  0  0  0
    3.6220    2.4740   17.4730 O   0  0  0  0  0  0  0  0  0  0  0  0
    3.8270    3.5070   18.4780 C   0  0  0  0  0  0  0  0  0  0  0  0
    3.6220    3.8860   15.9050 H   0  0  0  0  0  0  0  0  0  0  0  0
    2.0830    3.0190   16.1230 H   0  0  0  0  0  0  0  0  0  0  0  0
    3.7040    3.1200   19.4930 H   0  0  0  0  0  0  0  0  0  0  0  0
    4.8260    3.9490   18.3800 H   0  0  0  0  0  0  0  0  0  0  0  0
    1.3270    3.9940   18.6350 C   0  0  0  0  0  0  0  0  0  0  0  0
    0.6880    4.8840   18.6980 H   0  0  0  0  0  0  0  0  0  0  0  0
    0.7460    3.2680   18.0500 H   0  0  0  0  0  0  0  0  0  0  0  0
    1.8670    4.1900   21.1120 N   0  0  0  0  0  0  0  0  0  0  0  0
    1.9960    3.3050   22.1390 C   0  0  0  0  0  0  0  0  0  0  0  0
    1.7490    2.0930   21.7050 N   0  0  0  0  0  0  0  0  0  0  0  0
    1.4510    2.1830   20.3670 N   0  0  0  0  0  0  0  0  0  0  0  0
    1.5380    3.4480   20.0050 C   0  0  0  0  0  0  0  0  0  0  0  0
    2.2610    3.5780   23.1520 H   0  0  0  0  0  0  0  0  0  0  0  0
    2.0410    5.6140   21.2040 C   0  0  0  0  0  0  0  0  0  0  0  0
    1.0940    6.0920   20.9440 H   0  0  0  0  0  0  0  0  0  0  0  0
    2.8310    5.9220   20.5150 H   0  0  0  0  0  0  0  0  0  0  0  0
    2.3250    5.8850   22.2240 H   0  0  0  0  0  0  0  0  0  0  0  0
   -2.9900   10.3590   16.3270 C   0  0  0  0  0  0  0  0  0  0  0  0
   -3.1020    9.0060   16.2110 F   0  0  0  0  0  0  0  0  0  0  0  0
   -4.2420   10.8580   16.1450 F   0  0  0  0  0  0  0  0  0  0  0  0
   -2.2620   10.7630   15.2490 F   0  0  0  0  0  0  0  0  0  0  0  0
   -3.0920   13.0260   20.6590 C   0  0  0  0  0  0  0  0  0  0  0  0
   -4.1570   12.9670   20.3950 H   0  0  0  0  0  0  0  0  0  0  0  0
   -2.7820   14.0600   20.4610 H   0  0  0  0  0  0  0  0  0  0  0  0
   -2.9070   12.7020   22.0790 N   0  0  0  0  0  0  0  0  0  0  0  0
   -1.9490   13.5860   22.7610 C   0  0  0  0  0  0  0  0  0  0  0  0
   -2.6000   14.5910   23.7110 C   0  0  0  0  0  0  0  0  0  0  0  0
   -3.4300   13.8890   24.7850 C   0  0  0  0  0  0  0  0  0  0  0  0
   -4.0580   12.5930   24.2770 C   0  0  0  0  0  0  0  0  0  0  0  0
   -4.2070   12.6000   22.7570 C   0  0  0  0  0  0  0  0  0  0  0  0
   -1.2690   12.9490   23.3410 H   0  0  0  0  0  0  0  0  0  0  0  0
   -1.3080   14.1290   22.0550 H   0  0  0  0  0  0  0  0  0  0  0  0
   -1.8320   15.2100   24.1880 H   0  0  0  0  0  0  0  0  0  0  0  0
   -3.2410   15.2720   23.1380 H   0  0  0  0  0  0  0  0  0  0  0  0
   -4.2080   14.5740   25.1390 H   0  0  0  0  0  0  0  0  0  0  0  0
   -2.8020   13.6620   25.6550 H   0  0  0  0  0  0  0  0  0  0  0  0
   -5.0350   12.4430   24.7520 H   0  0  0  0  0  0  0  0  0  0  0  0
   -3.4350   11.7410   24.5800 H   0  0  0  0  0  0  0  0  0  0  0  0
   -4.8660   13.4300   22.4710 H   0  0  0  0  0  0  0  0  0  0  0  0
   -4.7000   11.6720   22.4450 H   0  0  0  0  0  0  0  0  0  0  0  0
  1  9  1  0  0  0  0
  2  3  1  0  0  0  0
  2  1  1  0  0  0  0
  3  4  1  0  0  0  0
  4  9  1  0  0  0  0
  4  5  2  0  0  0  0
  5 13  1  0  0  0  0
  6  5  1  0  0  0  0
  6 50  1  0  0  0  0
  7  6  2  0  0  0  0
  8  3  2  0  0  0  0
  8  7  1  0  0  0  0
  9 10  2  0  0  0  0
 11  2  1  0  0  0  0
 12  2  1  0  0  0  0
 14  7  1  0  0  0  0
 15 25  1  0  0  0  0
 15 20  1  0  0  0  0
 16 15  2  0  0  0  0
 17 16  1  0  0  0  0
 17 18  2  0  0  0  0
 18 19  1  0  0  0  0
 19 20  2  0  0  0  0
 19  1  1  0  0  0  0
 20 24  1  0  0  0  0
 21 16  1  0  0  0  0
 22 17  1  0  0  0  0
 23 18  1  0  0  0  0
 25 28  1  0  0  0  0
 25 33  1  0  0  0  0
 26 27  1  0  0  0  0
 26 25  1  0  0  0  0
 27 28  1  0  0  0  0
 28 31  1  0  0  0  0
 29 26  1  0  0  0  0
 30 26  1  0  0  0  0
 32 28  1  0  0  0  0
 33 34  1  0  0  0  0
 33 40  1  0  0  0  0
 35 33  1  0  0  0  0
 36 42  1  0  0  0  0
 36 37  1  0  0  0  0
 37 41  1  0  0  0  0
 38 37  2  0  0  0  0
 39 38  1  0  0  0  0
 40 39  2  0  0  0  0
 40 36  1  0  0  0  0
 42 45  1  0  0  0  0
 43 42  1  0  0  0  0
 44 42  1  0  0  0  0
 46  8  1  0  0  0  0
 47 46  1  0  0  0  0
 48 46  1  0  0  0  0
 49 46  1  0  0  0  0
 50 53  1  0  0  0  0
 51 50  1  0  0  0  0
 52 50  1  0  0  0  0
 53 58  1  0  0  0  0
 53 54  1  0  0  0  0
 54 59  1  0  0  0  0
 54 55  1  0  0  0  0
 55 61  1  0  0  0  0
 55 56  1  0  0  0  0
 56 63  1  0  0  0  0
 56 64  1  0  0  0  0
 57 66  1  0  0  0  0
 57 65  1  0  0  0  0
 57 56  1  0  0  0  0
 58 57  1  0  0  0  0
 60 54  1  0  0  0  0
 62 55  1  0  0  0  0
 67 58  1  0  0  0  0
 68 58  1  0  0  0  0
M  END
>  <MODEL>
25

>  <REMARK>
 VINA RESULT:    -7.131      3.838      9.694
 INTER + INTRA:         -11.421
 INTER:                 -10.272
 INTRA:                  -1.150
 UNBOUND:                -1.163
  Name = 
  8 active torsions:
  status: ('A' for Active; 'I' for Inactive)
    1  A    between atoms: C_1  and  N_2
    2  A    between atoms: C_6  and  C_7
    3  A    between atoms: C_7  and  C_8
    4  A    between atoms: C_8  and  C_12
    5  A    between atoms: C_16  and  N_18
    6  A    between atoms: C_23  and  C_24
    7  A    between atoms: C_24  and  N_25
    8  A    between atoms: C_32  and  C_33
                            x       y       z     vdW  Elec       q    Type
                         _______ _______ _______ _____ _____    ______ ____

>  <TORSDO>
F 8

$$$$
=
 OpenBabel07192307433D

 68 73  0  0  0  0  0  0  0  0999 V2000
    1.3960    9.4890   19.7150 N   0  0  0  0  0  0  0  0  0  0  0  0
    2.3030    8.8650   18.7620 C   0  0  0  0  0  0  0  0  0  0  0  0
    2.4180    7.4580   19.2500 C   0  0  0  0  0  0  0  0  0  0  0  0
    1.6460    7.2990   20.3940 C   0  0  0  0  0  0  0  0  0  0  0  0
    1.5690    6.1020   21.0790 C   0  0  0  0  0  0  0  0  0  0  0  0
    2.3010    5.0090   20.5880 C   0  0  0  0  0  0  0  0  0  0  0  0
    3.0870    5.1680   19.4220 C   0  0  0  0  0  0  0  0  0  0  0  0
    3.1550    6.3960   18.7350 C   0  0  0  0  0  0  0  0  0  0  0  0
    0.9940    8.5790   20.7010 C   0  0  0  0  0  0  0  0  0  0  0  0
    0.2690    8.7140   21.6690 O   0  0  0  0  0  0  0  0  0  0  0  0
    3.2770    9.3640   18.7990 H   0  0  0  0  0  0  0  0  0  0  0  0
    1.8660    8.8960   17.7580 H   0  0  0  0  0  0  0  0  0  0  0  0
    0.9550    6.0150   21.9720 H   0  0  0  0  0  0  0  0  0  0  0  0
    3.6570    4.3160   19.0470 H   0  0  0  0  0  0  0  0  0  0  0  0
   -0.2200   12.8030   20.5610 C   0  0  0  0  0  0  0  0  0  0  0  0
    0.2440   13.5590   19.4730 C   0  0  0  0  0  0  0  0  0  0  0  0
    1.0640   13.0060   18.4920 C   0  0  0  0  0  0  0  0  0  0  0  0
    1.4440   11.6660   18.5640 C   0  0  0  0  0  0  0  0  0  0  0  0
    1.0230   10.8600   19.6230 C   0  0  0  0  0  0  0  0  0  0  0  0
    0.2050   11.4510   20.6070 C   0  0  0  0  0  0  0  0  0  0  0  0
   -0.0190   14.6150   19.3970 H   0  0  0  0  0  0  0  0  0  0  0  0
    1.4180   13.6240   17.6690 H   0  0  0  0  0  0  0  0  0  0  0  0
    2.0850   11.2870   17.7750 H   0  0  0  0  0  0  0  0  0  0  0  0
   -0.1370   10.8610   21.4530 H   0  0  0  0  0  0  0  0  0  0  0  0
   -1.1820   13.4300   21.6830 C   0  0  0  0  0  0  0  0  0  0  0  0
   -1.4970   12.5620   22.9380 C   0  0  0  0  0  0  0  0  0  0  0  0
   -1.3030   13.7160   23.8050 O   0  0  0  0  0  0  0  0  0  0  0  0
   -0.5060   14.3350   22.7560 C   0  0  0  0  0  0  0  0  0  0  0  0
   -0.7710   11.7740   23.1740 H   0  0  0  0  0  0  0  0  0  0  0  0
   -2.5050   12.1540   23.0270 H   0  0  0  0  0  0  0  0  0  0  0  0
   -0.6950   15.4100   22.6790 H   0  0  0  0  0  0  0  0  0  0  0  0
    0.5630   14.1700   22.9350 H   0  0  0  0  0  0  0  0  0  0  0  0
   -2.4020   14.1410   21.0580 C   0  0  0  0  0  0  0  0  0  0  0  0
   -2.9110   14.7510   21.8140 H   0  0  0  0  0  0  0  0  0  0  0  0
   -2.0680   14.8540   20.2930 H   0  0  0  0  0  0  0  0  0  0  0  0
   -4.5780   12.8250   21.0090 N   0  0  0  0  0  0  0  0  0  0  0  0
   -5.1470   11.9440   20.1410 C   0  0  0  0  0  0  0  0  0  0  0  0
   -4.3680   11.7950   19.0970 N   0  0  0  0  0  0  0  0  0  0  0  0
   -3.2670   12.5940   19.2820 N   0  0  0  0  0  0  0  0  0  0  0  0
   -3.3850   13.2040   20.4440 C   0  0  0  0  0  0  0  0  0  0  0  0
   -6.0970   11.4520   20.3030 H   0  0  0  0  0  0  0  0  0  0  0  0
   -5.1420   13.2570   22.2580 C   0  0  0  0  0  0  0  0  0  0  0  0
   -6.2280   13.1490   22.1990 H   0  0  0  0  0  0  0  0  0  0  0  0
   -4.8670   14.2990   22.4340 H   0  0  0  0  0  0  0  0  0  0  0  0
   -4.7520   12.6380   23.0720 H   0  0  0  0  0  0  0  0  0  0  0  0
    3.9920    6.5650   17.4960 C   0  0  0  0  0  0  0  0  0  0  0  0
    4.1210    5.4020   16.7980 F   0  0  0  0  0  0  0  0  0  0  0  0
    3.4980    7.4790   16.6180 F   0  0  0  0  0  0  0  0  0  0  0  0
    5.2620    6.9650   17.7830 F   0  0  0  0  0  0  0  0  0  0  0  0
    2.2790    3.6810   21.3230 C   0  0  0  0  0  0  0  0  0  0  0  0
    1.3370    3.6650   21.8870 H   0  0  0  0  0  0  0  0  0  0  0  0
    3.0850    3.6380   22.0670 H   0  0  0  0  0  0  0  0  0  0  0  0
    2.3510    2.5210   20.4280 N   0  0  0  0  0  0  0  0  0  0  0  0
    1.2060    2.4180   19.5090 C   0  0  0  0  0  0  0  0  0  0  0  0
    1.5380    2.7780   18.0610 C   0  0  0  0  0  0  0  0  0  0  0  0
    2.6580    1.8970   17.5080 C   0  0  0  0  0  0  0  0  0  0  0  0
    3.6590    1.4880   18.5860 C   0  0  0  0  0  0  0  0  0  0  0  0
    3.6580    2.4690   19.7550 C   0  0  0  0  0  0  0  0  0  0  0  0
    0.8550    1.3790   19.5370 H   0  0  0  0  0  0  0  0  0  0  0  0
    0.3530    3.0240   19.8380 H   0  0  0  0  0  0  0  0  0  0  0  0
    0.6470    2.6740   17.4330 H   0  0  0  0  0  0  0  0  0  0  0  0
    1.8390    3.8320   18.0070 H   0  0  0  0  0  0  0  0  0  0  0  0
    3.1680    2.4340   16.7010 H   0  0  0  0  0  0  0  0  0  0  0  0
    2.2340    0.9930   17.0550 H   0  0  0  0  0  0  0  0  0  0  0  0
    4.6640    1.4180   18.1520 H   0  0  0  0  0  0  0  0  0  0  0  0
    3.4120    0.4820   18.9520 H   0  0  0  0  0  0  0  0  0  0  0  0
    3.9480    3.4610   19.3840 H   0  0  0  0  0  0  0  0  0  0  0  0
    4.4200    2.1590   20.4800 H   0  0  0  0  0  0  0  0  0  0  0  0
  1  9  1  0  0  0  0
  2 11  1  0  0  0  0
  2  3  1  0  0  0  0
  2  1  1  0  0  0  0
  3  4  1  0  0  0  0
  4  9  1  0  0  0  0
  4  5  2  0  0  0  0
  5 13  1  0  0  0  0
  6  5  1  0  0  0  0
  6 50  1  0  0  0  0
  7  6  2  0  0  0  0
  8  3  2  0  0  0  0
  8  7  1  0  0  0  0
  9 10  2  0  0  0  0
 12  2  1  0  0  0  0
 14  7  1  0  0  0  0
 15 20  1  0  0  0  0
 15 25  1  0  0  0  0
 16 15  2  0  0  0  0
 17 18  2  0  0  0  0
 17 16  1  0  0  0  0
 18 19  1  0  0  0  0
 19  1  1  0  0  0  0
 19 20  2  0  0  0  0
 20 24  1  0  0  0  0
 21 16  1  0  0  0  0
 22 17  1  0  0  0  0
 23 18  1  0  0  0  0
 25 28  1  0  0  0  0
 25 26  1  0  0  0  0
 26 30  1  0  0  0  0
 26 29  1  0  0  0  0
 26 27  1  0  0  0  0
 28 32  1  0  0  0  0
 28 27  1  0  0  0  0
 31 28  1  0  0  0  0
 33 25  1  0  0  0  0
 33 34  1  0  0  0  0
 35 33  1  0  0  0  0
 36 42  1  0  0  0  0
 37 41  1  0  0  0  0
 37 36  1  0  0  0  0
 38 39  1  0  0  0  0
 38 37  2  0  0  0  0
 39 40  2  0  0  0  0
 40 36  1  0  0  0  0
 40 33  1  0  0  0  0
 42 44  1  0  0  0  0
 42 45  1  0  0  0  0
 43 42  1  0  0  0  0
 46 49  1  0  0  0  0
 46  8  1  0  0  0  0
 47 46  1  0  0  0  0
 48 46  1  0  0  0  0
 50 51  1  0  0  0  0
 50 52  1  0  0  0  0
 53 50  1  0  0  0  0
 54 59  1  0  0  0  0
 54 60  1  0  0  0  0
 54 53  1  0  0  0  0
 55 54  1  0  0  0  0
 56 55  1  0  0  0  0
 56 57  1  0  0  0  0
 57 66  1  0  0  0  0
 57 58  1  0  0  0  0
 58 53  1  0  0  0  0
 58 68  1  0  0  0  0
 61 55  1  0  0  0  0
 62 55  1  0  0  0  0
 63 56  1  0  0  0  0
 64 56  1  0  0  0  0
 65 57  1  0  0  0  0
 67 58  1  0  0  0  0
M  END
>  <MODEL>
26

>  <REMARK>
 VINA RESULT:    -7.046      3.009      4.350
 INTER + INTRA:         -11.299
 INTER:                 -11.302
 INTRA:                   0.003
 UNBOUND:                -1.163
  Name = 
  8 active torsions:
  status: ('A' for Active; 'I' for Inactive)
    1  A    between atoms: C_1  and  N_2
    2  A    between atoms: C_6  and  C_7
    3  A    between atoms: C_7  and  C_8
    4  A    between atoms: C_8  and  C_12
    5  A    between atoms: C_16  and  N_18
    6  A    between atoms: C_23  and  C_24
    7  A    between atoms: C_24  and  N_25
    8  A    between atoms: C_32  and  C_33
                            x       y       z     vdW  Elec       q    Type
                         _______ _______ _______ _____ _____    ______ ____

>  <TORSDO>
F 8

$$$$
=
 OpenBabel07192307433D

 68 73  0  0  0  0  0  0  0  0999 V2000
    0.9460    8.6380   20.0150 N   0  0  0  0  0  0  0  0  0  0  0  0
   -0.0180    8.9090   18.9580 C   0  0  0  0  0  0  0  0  0  0  0  0
   -0.5870   10.2390   19.3280 C   0  0  0  0  0  0  0  0  0  0  0  0
   -0.0020   10.6830   20.5070 C   0  0  0  0  0  0  0  0  0  0  0  0
   -0.3450   11.8810   21.1040 C   0  0  0  0  0  0  0  0  0  0  0  0
   -1.3220   12.6750   20.4820 C   0  0  0  0  0  0  0  0  0  0  0  0
   -1.9190   12.2260   19.2800 C   0  0  0  0  0  0  0  0  0  0  0  0
   -1.5580   11.0010   18.6850 C   0  0  0  0  0  0  0  0  0  0  0  0
    0.9710    9.6770   20.9550 C   0  0  0  0  0  0  0  0  0  0  0  0
    1.6140    9.8170   21.9780 O   0  0  0  0  0  0  0  0  0  0  0  0
   -0.7990    8.1420   18.9650 H   0  0  0  0  0  0  0  0  0  0  0  0
    0.4960    8.9600   17.9910 H   0  0  0  0  0  0  0  0  0  0  0  0
    0.1350   12.1950   22.0280 H   0  0  0  0  0  0  0  0  0  0  0  0
   -2.6800   12.8460   18.8030 H   0  0  0  0  0  0  0  0  0  0  0  0
    3.5210    6.0310   19.0780 C   0  0  0  0  0  0  0  0  0  0  0  0
    3.2470    5.0810   20.0750 C   0  0  0  0  0  0  0  0  0  0  0  0
    2.2520    5.2860   21.0290 C   0  0  0  0  0  0  0  0  0  0  0  0
    1.4890    6.4530   21.0130 C   0  0  0  0  0  0  0  0  0  0  0  0
    1.7150    7.4410   20.0530 C   0  0  0  0  0  0  0  0  0  0  0  0
    2.7360    7.2110   19.1090 C   0  0  0  0  0  0  0  0  0  0  0  0
    3.8370    4.1660   20.1280 H   0  0  0  0  0  0  0  0  0  0  0  0
    2.0740    4.5350   21.7960 H   0  0  0  0  0  0  0  0  0  0  0  0
    0.7290    6.5630   21.7790 H   0  0  0  0  0  0  0  0  0  0  0  0
    2.9510    7.9590   18.3510 H   0  0  0  0  0  0  0  0  0  0  0  0
    4.6520    5.7900   17.9650 C   0  0  0  0  0  0  0  0  0  0  0  0
    5.4410    7.0320   17.4510 C   0  0  0  0  0  0  0  0  0  0  0  0
    6.6910    6.2890   17.5250 O   0  0  0  0  0  0  0  0  0  0  0  0
    6.0660    5.3860   18.4800 C   0  0  0  0  0  0  0  0  0  0  0  0
    5.4660    7.8990   18.1210 H   0  0  0  0  0  0  0  0  0  0  0  0
    5.2340    7.3740   16.4360 H   0  0  0  0  0  0  0  0  0  0  0  0
    6.3670    4.3470   18.3200 H   0  0  0  0  0  0  0  0  0  0  0  0
    6.3150    5.6780   19.5080 H   0  0  0  0  0  0  0  0  0  0  0  0
    4.1740    4.8200   16.8640 C   0  0  0  0  0  0  0  0  0  0  0  0
    3.4200    5.3060   16.2330 H   0  0  0  0  0  0  0  0  0  0  0  0
    5.0050    4.5860   16.1850 H   0  0  0  0  0  0  0  0  0  0  0  0
    2.2830    3.2890   17.6050 N   0  0  0  0  0  0  0  0  0  0  0  0
    2.2140    2.0330   18.1250 C   0  0  0  0  0  0  0  0  0  0  0  0
    3.4220    1.5320   18.2200 N   0  0  0  0  0  0  0  0  0  0  0  0
    4.3020    2.4770   17.7530 N   0  0  0  0  0  0  0  0  0  0  0  0
    3.6160    3.5450   17.3960 C   0  0  0  0  0  0  0  0  0  0  0  0
    1.2940    1.5390   18.4090 H   0  0  0  0  0  0  0  0  0  0  0  0
    1.1640    4.1490   17.3340 C   0  0  0  0  0  0  0  0  0  0  0  0
    0.8900    4.0340   16.2820 H   0  0  0  0  0  0  0  0  0  0  0  0
    1.4470    5.1820   17.5480 H   0  0  0  0  0  0  0  0  0  0  0  0
    0.3200    3.8670   17.9690 H   0  0  0  0  0  0  0  0  0  0  0  0
   -2.1950   10.5240   17.4080 C   0  0  0  0  0  0  0  0  0  0  0  0
   -2.6940   11.5510   16.6650 F   0  0  0  0  0  0  0  0  0  0  0  0
   -1.3460    9.8450   16.5900 F   0  0  0  0  0  0  0  0  0  0  0  0
   -3.2470    9.6900   17.6370 F   0  0  0  0  0  0  0  0  0  0  0  0
   -1.7600   13.9830   21.1140 C   0  0  0  0  0  0  0  0  0  0  0  0
   -1.8190   14.7090   20.2920 H   0  0  0  0  0  0  0  0  0  0  0  0
   -0.9900   14.3570   21.8020 H   0  0  0  0  0  0  0  0  0  0  0  0
   -3.0540   13.8920   21.8000 N   0  0  0  0  0  0  0  0  0  0  0  0
   -3.4140   12.5200   22.1910 C   0  0  0  0  0  0  0  0  0  0  0  0
   -3.2970   12.2500   23.6910 C   0  0  0  0  0  0  0  0  0  0  0  0
   -4.1690   13.2080   24.5020 C   0  0  0  0  0  0  0  0  0  0  0  0
   -4.2940   14.5790   23.8400 C   0  0  0  0  0  0  0  0  0  0  0  0
   -3.1200   14.8600   22.9050 C   0  0  0  0  0  0  0  0  0  0  0  0
   -4.4560   12.3550   21.8890 H   0  0  0  0  0  0  0  0  0  0  0  0
   -2.8300   11.7660   21.6480 H   0  0  0  0  0  0  0  0  0  0  0  0
   -3.5850   11.2170   23.9120 H   0  0  0  0  0  0  0  0  0  0  0  0
   -2.2490   12.3570   24.0000 H   0  0  0  0  0  0  0  0  0  0  0  0
   -3.7480   13.3090   25.5080 H   0  0  0  0  0  0  0  0  0  0  0  0
   -5.1720   12.7830   24.6300 H   0  0  0  0  0  0  0  0  0  0  0  0
   -4.3590   15.3570   24.6100 H   0  0  0  0  0  0  0  0  0  0  0  0
   -5.2330   14.6280   23.2730 H   0  0  0  0  0  0  0  0  0  0  0  0
   -2.1920   14.8500   23.4920 H   0  0  0  0  0  0  0  0  0  0  0  0
   -3.2300   15.8680   22.4900 H   0  0  0  0  0  0  0  0  0  0  0  0
  1 19  1  0  0  0  0
  1  9  1  0  0  0  0
  2 11  1  0  0  0  0
  2  3  1  0  0  0  0
  2  1  1  0  0  0  0
  3  4  1  0  0  0  0
  4  9  1  0  0  0  0
  4  5  2  0  0  0  0
  5 13  1  0  0  0  0
  6  5  1  0  0  0  0
  6 50  1  0  0  0  0
  7  6  2  0  0  0  0
  8  7  1  0  0  0  0
  8  3  2  0  0  0  0
  9 10  2  0  0  0  0
 12  2  1  0  0  0  0
 14  7  1  0  0  0  0
 15 20  2  0  0  0  0
 15 16  1  0  0  0  0
 16 21  1  0  0  0  0
 16 17  2  0  0  0  0
 17 22  1  0  0  0  0
 18 17  1  0  0  0  0
 18 23  1  0  0  0  0
 19 18  2  0  0  0  0
 20 19  1  0  0  0  0
 24 20  1  0  0  0  0
 25 28  1  0  0  0  0
 25 15  1  0  0  0  0
 26 27  1  0  0  0  0
 26 25  1  0  0  0  0
 26 29  1  0  0  0  0
 27 28  1  0  0  0  0
 28 32  1  0  0  0  0
 30 26  1  0  0  0  0
 31 28  1  0  0  0  0
 33 40  1  0  0  0  0
 33 25  1  0  0  0  0
 34 33  1  0  0  0  0
 35 33  1  0  0  0  0
 36 37  1  0  0  0  0
 37 38  2  0  0  0  0
 37 41  1  0  0  0  0
 39 38  1  0  0  0  0
 40 36  1  0  0  0  0
 40 39  2  0  0  0  0
 42 44  1  0  0  0  0
 42 36  1  0  0  0  0
 42 45  1  0  0  0  0
 43 42  1  0  0  0  0
 46 49  1  0  0  0  0
 46  8  1  0  0  0  0
 47 46  1  0  0  0  0
 48 46  1  0  0  0  0
 50 53  1  0  0  0  0
 50 52  1  0  0  0  0
 51 50  1  0  0  0  0
 53 54  1  0  0  0  0
 53 58  1  0  0  0  0
 54 55  1  0  0  0  0
 55 61  1  0  0  0  0
 55 62  1  0  0  0  0
 55 56  1  0  0  0  0
 56 64  1  0  0  0  0
 56 63  1  0  0  0  0
 57 56  1  0  0  0  0
 57 65  1  0  0  0  0
 58 67  1  0  0  0  0
 58 57  1  0  0  0  0
 59 54  1  0  0  0  0
 60 54  1  0  0  0  0
 66 57  1  0  0  0  0
 68 58  1  0  0  0  0
M  END
>  <MODEL>
27

>  <REMARK>
 VINA RESULT:    -6.956      3.484      9.522
 INTER + INTRA:         -11.170
 INTER:                 -10.654
 INTRA:                  -0.515
 UNBOUND:                -1.163
  Name = 
  8 active torsions:
  status: ('A' for Active; 'I' for Inactive)
    1  A    between atoms: C_1  and  N_2
    2  A    between atoms: C_6  and  C_7
    3  A    between atoms: C_7  and  C_8
    4  A    between atoms: C_8  and  C_12
    5  A    between atoms: C_16  and  N_18
    6  A    between atoms: C_23  and  C_24
    7  A    between atoms: C_24  and  N_25
    8  A    between atoms: C_32  and  C_33
                            x       y       z     vdW  Elec       q    Type
                         _______ _______ _______ _____ _____    ______ ____

>  <TORSDO>
F 8

$$$$
=
 OpenBabel07192307433D

 68 73  0  0  0  0  0  0  0  0999 V2000
    2.0030    7.4720   19.2730 N   0  0  0  0  0  0  0  0  0  0  0  0
    1.9990    8.8280   18.7430 C   0  0  0  0  0  0  0  0  0  0  0  0
    1.2390    9.6060   19.7660 C   0  0  0  0  0  0  0  0  0  0  0  0
    0.8350    8.7580   20.7900 C   0  0  0  0  0  0  0  0  0  0  0  0
    0.0970    9.1960   21.8720 C   0  0  0  0  0  0  0  0  0  0  0  0
   -0.2500   10.5560   21.9310 C   0  0  0  0  0  0  0  0  0  0  0  0
    0.1610   11.4230   20.8910 C   0  0  0  0  0  0  0  0  0  0  0  0
    0.9140   10.9590   19.7930 C   0  0  0  0  0  0  0  0  0  0  0  0
    1.3110    7.4010   20.4880 C   0  0  0  0  0  0  0  0  0  0  0  0
    1.0760    6.4610   21.2240 O   0  0  0  0  0  0  0  0  0  0  0  0
    1.4760    8.8460   17.7810 H   0  0  0  0  0  0  0  0  0  0  0  0
    3.0270    9.1960   18.6560 H   0  0  0  0  0  0  0  0  0  0  0  0
   -0.2030    8.5030   22.6530 H   0  0  0  0  0  0  0  0  0  0  0  0
   -0.1130   12.4780   20.9400 H   0  0  0  0  0  0  0  0  0  0  0  0
    4.6710    5.3850   17.5890 C   0  0  0  0  0  0  0  0  0  0  0  0
    3.8850    4.2850   17.2100 C   0  0  0  0  0  0  0  0  0  0  0  0
    2.5230    4.2230   17.4970 C   0  0  0  0  0  0  0  0  0  0  0  0
    1.8970    5.2700   18.1740 C   0  0  0  0  0  0  0  0  0  0  0  0
    2.6220    6.3900   18.5850 C   0  0  0  0  0  0  0  0  0  0  0  0
    4.0000    6.4180   18.2910 C   0  0  0  0  0  0  0  0  0  0  0  0
    4.3470    3.4410   16.6960 H   0  0  0  0  0  0  0  0  0  0  0  0
    1.9450    3.3500   17.2010 H   0  0  0  0  0  0  0  0  0  0  0  0
    0.8360    5.1700   18.3740 H   0  0  0  0  0  0  0  0  0  0  0  0
    4.6030    7.2670   18.6020 H   0  0  0  0  0  0  0  0  0  0  0  0
    6.2360    5.4700   17.2410 C   0  0  0  0  0  0  0  0  0  0  0  0
    6.8090    6.8510   16.8040 C   0  0  0  0  0  0  0  0  0  0  0  0
    7.9740    6.6560   17.6550 O   0  0  0  0  0  0  0  0  0  0  0  0
    7.2060    5.6980   18.4380 C   0  0  0  0  0  0  0  0  0  0  0  0
    6.2390    7.7320   17.1230 H   0  0  0  0  0  0  0  0  0  0  0  0
    7.0900    6.9700   15.7560 H   0  0  0  0  0  0  0  0  0  0  0  0
    7.8130    4.8420   18.7470 H   0  0  0  0  0  0  0  0  0  0  0  0
    6.7830    6.1780   19.3280 H   0  0  0  0  0  0  0  0  0  0  0  0
    6.6980    4.2720   16.3840 C   0  0  0  0  0  0  0  0  0  0  0  0
    7.5630    3.7840   16.8500 H   0  0  0  0  0  0  0  0  0  0  0  0
    5.9140    3.5020   16.3640 H   0  0  0  0  0  0  0  0  0  0  0  0
    6.3130    4.3000   13.8700 N   0  0  0  0  0  0  0  0  0  0  0  0
    6.9900    4.8040   12.8020 C   0  0  0  0  0  0  0  0  0  0  0  0
    8.0620    5.4320   13.2210 N   0  0  0  0  0  0  0  0  0  0  0  0
    8.0900    5.3390   14.5900 N   0  0  0  0  0  0  0  0  0  0  0  0
    7.0430    4.6410   14.9820 C   0  0  0  0  0  0  0  0  0  0  0  0
    6.6760    4.6940   11.7720 H   0  0  0  0  0  0  0  0  0  0  0  0
    5.0790    3.5640   13.8130 C   0  0  0  0  0  0  0  0  0  0  0  0
    4.7940    3.4570   12.7640 H   0  0  0  0  0  0  0  0  0  0  0  0
    4.3130    4.1090   14.3680 H   0  0  0  0  0  0  0  0  0  0  0  0
    5.2180    2.5770   14.2620 H   0  0  0  0  0  0  0  0  0  0  0  0
    1.3500   11.8810   18.6860 C   0  0  0  0  0  0  0  0  0  0  0  0
    2.0640   11.2310   17.7250 F   0  0  0  0  0  0  0  0  0  0  0  0
    0.3200   12.4930   18.0410 F   0  0  0  0  0  0  0  0  0  0  0  0
    2.1600   12.8790   19.1360 F   0  0  0  0  0  0  0  0  0  0  0  0
   -1.0900   11.0820   23.0800 C   0  0  0  0  0  0  0  0  0  0  0  0
   -0.3900   11.2580   23.9080 H   0  0  0  0  0  0  0  0  0  0  0  0
   -1.7920   10.3140   23.4280 H   0  0  0  0  0  0  0  0  0  0  0  0
   -1.8080   12.3190   22.7550 N   0  0  0  0  0  0  0  0  0  0  0  0
   -3.2550   12.2420   23.0140 C   0  0  0  0  0  0  0  0  0  0  0  0
   -3.7090   13.0290   24.2420 C   0  0  0  0  0  0  0  0  0  0  0  0
   -3.3360   14.5070   24.1290 C   0  0  0  0  0  0  0  0  0  0  0  0
   -2.0380   14.7200   23.3530 C   0  0  0  0  0  0  0  0  0  0  0  0
   -1.1540   13.4750   23.3860 C   0  0  0  0  0  0  0  0  0  0  0  0
   -3.7680   12.6460   22.1330 H   0  0  0  0  0  0  0  0  0  0  0  0
   -3.6060   11.2060   23.1070 H   0  0  0  0  0  0  0  0  0  0  0  0
   -4.7930   12.9340   24.3720 H   0  0  0  0  0  0  0  0  0  0  0  0
   -3.2460   12.6020   25.1410 H   0  0  0  0  0  0  0  0  0  0  0  0
   -3.2490   14.9310   25.1360 H   0  0  0  0  0  0  0  0  0  0  0  0
   -4.1420   15.0590   23.6320 H   0  0  0  0  0  0  0  0  0  0  0  0
   -1.4970   15.5800   23.7640 H   0  0  0  0  0  0  0  0  0  0  0  0
   -2.2730   14.9740   22.3100 H   0  0  0  0  0  0  0  0  0  0  0  0
   -0.8920   13.2570   24.4300 H   0  0  0  0  0  0  0  0  0  0  0  0
   -0.2190   13.6900   22.8550 H   0  0  0  0  0  0  0  0  0  0  0  0
  1  9  1  0  0  0  0
  2  1  1  0  0  0  0
  2  3  1  0  0  0  0
  3  8  2  0  0  0  0
  3  4  1  0  0  0  0
  4  5  2  0  0  0  0
  5  6  1  0  0  0  0
  5 13  1  0  0  0  0
  6 50  1  0  0  0  0
  7 14  1  0  0  0  0
  7  6  2  0  0  0  0
  8  7  1  0  0  0  0
  9  4  1  0  0  0  0
  9 10  2  0  0  0  0
 11  2  1  0  0  0  0
 12  2  1  0  0  0  0
 15 20  1  0  0  0  0
 16 17  1  0  0  0  0
 16 15  2  0  0  0  0
 17 18  2  0  0  0  0
 18 23  1  0  0  0  0
 18 19  1  0  0  0  0
 19  1  1  0  0  0  0
 20 19  2  0  0  0  0
 20 24  1  0  0  0  0
 21 16  1  0  0  0  0
 22 17  1  0  0  0  0
 25 15  1  0  0  0  0
 25 28  1  0  0  0  0
 26 29  1  0  0  0  0
 26 25  1  0  0  0  0
 26 27  1  0  0  0  0
 27 28  1  0  0  0  0
 28 31  1  0  0  0  0
 28 32  1  0  0  0  0
 30 26  1  0  0  0  0
 33 34  1  0  0  0  0
 33 25  1  0  0  0  0
 35 33  1  0  0  0  0
 36 40  1  0  0  0  0
 37 38  2  0  0  0  0
 37 36  1  0  0  0  0
 38 39  1  0  0  0  0
 39 40  2  0  0  0  0
 40 33  1  0  0  0  0
 41 37  1  0  0  0  0
 42 36  1  0  0  0  0
 42 45  1  0  0  0  0
 42 44  1  0  0  0  0
 43 42  1  0  0  0  0
 46 49  1  0  0  0  0
 46  8  1  0  0  0  0
 47 46  1  0  0  0  0
 48 46  1  0  0  0  0
 50 52  1  0  0  0  0
 50 51  1  0  0  0  0
 53 54  1  0  0  0  0
 53 50  1  0  0  0  0
 53 58  1  0  0  0  0
 54 60  1  0  0  0  0
 54 55  1  0  0  0  0
 55 61  1  0  0  0  0
 55 62  1  0  0  0  0
 56 55  1  0  0  0  0
 56 63  1  0  0  0  0
 57 58  1  0  0  0  0
 57 65  1  0  0  0  0
 57 56  1  0  0  0  0
 58 67  1  0  0  0  0
 59 54  1  0  0  0  0
 64 56  1  0  0  0  0
 66 57  1  0  0  0  0
 68 58  1  0  0  0  0
M  END
>  <MODEL>
28

>  <REMARK>
 VINA RESULT:    -6.739      3.910      9.929
 INTER + INTRA:         -10.858
 INTER:                 -10.334
 INTRA:                  -0.523
 UNBOUND:                -1.163
  Name = 
  8 active torsions:
  status: ('A' for Active; 'I' for Inactive)
    1  A    between atoms: C_1  and  N_2
    2  A    between atoms: C_6  and  C_7
    3  A    between atoms: C_7  and  C_8
    4  A    between atoms: C_8  and  C_12
    5  A    between atoms: C_16  and  N_18
    6  A    between atoms: C_23  and  C_24
    7  A    between atoms: C_24  and  N_25
    8  A    between atoms: C_32  and  C_33
                            x       y       z     vdW  Elec       q    Type
                         _______ _______ _______ _____ _____    ______ ____

>  <TORSDO>
F 8

$$$$
=
 OpenBabel07192307433D

 68 73  0  0  0  0  0  0  0  0999 V2000
    1.2440    8.5590   20.0490 N   0  0  0  0  0  0  0  0  0  0  0  0
    0.5080    9.1930   21.1330 C   0  0  0  0  0  0  0  0  0  0  0  0
    0.3580   10.6080   20.6800 C   0  0  0  0  0  0  0  0  0  0  0  0
    0.9690   10.7670   19.4430 C   0  0  0  0  0  0  0  0  0  0  0  0
    1.0040   11.9790   18.7800 C   0  0  0  0  0  0  0  0  0  0  0  0
    0.3910   13.0860   19.3900 C   0  0  0  0  0  0  0  0  0  0  0  0
   -0.2340   12.9260   20.6500 C   0  0  0  0  0  0  0  0  0  0  0  0
   -0.2610   11.6830   21.3120 C   0  0  0  0  0  0  0  0  0  0  0  0
    1.5370    9.4760   19.0320 C   0  0  0  0  0  0  0  0  0  0  0  0
    2.1440    9.3460   17.9850 O   0  0  0  0  0  0  0  0  0  0  0  0
    1.0960    9.1460   22.0550 H   0  0  0  0  0  0  0  0  0  0  0  0
   -0.4710    8.7130   21.2470 H   0  0  0  0  0  0  0  0  0  0  0  0
    1.4940   12.0660   17.8130 H   0  0  0  0  0  0  0  0  0  0  0  0
   -0.7060   13.7900   21.1200 H   0  0  0  0  0  0  0  0  0  0  0  0
    2.7820    5.2590   19.0200 C   0  0  0  0  0  0  0  0  0  0  0  0
    2.3630    4.4720   20.1050 C   0  0  0  0  0  0  0  0  0  0  0  0
    1.6020    5.0030   21.1450 C   0  0  0  0  0  0  0  0  0  0  0  0
    1.2290    6.3460   21.1310 C   0  0  0  0  0  0  0  0  0  0  0  0
    1.6180    7.1860   20.0860 C   0  0  0  0  0  0  0  0  0  0  0  0
    2.3970    6.6230   19.0550 C   0  0  0  0  0  0  0  0  0  0  0  0
    2.6530    3.4230   20.1560 H   0  0  0  0  0  0  0  0  0  0  0  0
    1.3050    4.3680   21.9770 H   0  0  0  0  0  0  0  0  0  0  0  0
    0.6380    6.7080   21.9660 H   0  0  0  0  0  0  0  0  0  0  0  0
    2.7290    7.2450   18.2270 H   0  0  0  0  0  0  0  0  0  0  0  0
    3.6400    4.6480   17.8090 C   0  0  0  0  0  0  0  0  0  0  0  0
    4.7500    3.6100   18.1570 C   0  0  0  0  0  0  0  0  0  0  0  0
    4.3380    2.7710   17.0420 O   0  0  0  0  0  0  0  0  0  0  0  0
    3.0330    3.4150   17.0740 C   0  0  0  0  0  0  0  0  0  0  0  0
    4.6310    3.0780   19.1080 H   0  0  0  0  0  0  0  0  0  0  0  0
    5.7880    3.9330   18.0590 H   0  0  0  0  0  0  0  0  0  0  0  0
    2.6380    3.5900   16.0700 H   0  0  0  0  0  0  0  0  0  0  0  0
    2.3170    2.8090   17.6420 H   0  0  0  0  0  0  0  0  0  0  0  0
    4.0590    5.7360   16.7980 C   0  0  0  0  0  0  0  0  0  0  0  0
    3.8900    5.3840   15.7720 H   0  0  0  0  0  0  0  0  0  0  0  0
    3.4120    6.6160   16.9070 H   0  0  0  0  0  0  0  0  0  0  0  0
    6.5200    5.7250   16.1590 N   0  0  0  0  0  0  0  0  0  0  0  0
    7.6390    6.3340   16.6400 C   0  0  0  0  0  0  0  0  0  0  0  0
    7.3150    7.1130   17.6430 N   0  0  0  0  0  0  0  0  0  0  0  0
    5.9570    7.0150   17.8240 N   0  0  0  0  0  0  0  0  0  0  0  0
    5.4790    6.1640   16.9390 C   0  0  0  0  0  0  0  0  0  0  0  0
    8.6350    6.1860   16.2420 H   0  0  0  0  0  0  0  0  0  0  0  0
    6.4710    4.8120   15.0490 C   0  0  0  0  0  0  0  0  0  0  0  0
    6.4400    3.7950   15.4440 H   0  0  0  0  0  0  0  0  0  0  0  0
    7.3570    4.9590   14.4270 H   0  0  0  0  0  0  0  0  0  0  0  0
    5.5750    5.0060   14.4530 H   0  0  0  0  0  0  0  0  0  0  0  0
   -0.9240   11.5140   22.6520 C   0  0  0  0  0  0  0  0  0  0  0  0
   -0.9070   12.6620   23.3840 F   0  0  0  0  0  0  0  0  0  0  0  0
   -2.2290   11.1350   22.5770 F   0  0  0  0  0  0  0  0  0  0  0  0
   -0.3020   10.5770   23.4200 F   0  0  0  0  0  0  0  0  0  0  0  0
    0.4320   14.4470   18.7210 C   0  0  0  0  0  0  0  0  0  0  0  0
   -0.4130   15.0120   19.1380 H   0  0  0  0  0  0  0  0  0  0  0  0
    0.2410   14.3540   17.6450 H   0  0  0  0  0  0  0  0  0  0  0  0
    1.6870   15.1710   18.9550 N   0  0  0  0  0  0  0  0  0  0  0  0
    2.0520   15.2670   20.3770 C   0  0  0  0  0  0  0  0  0  0  0  0
    3.2160   14.3640   20.7820 C   0  0  0  0  0  0  0  0  0  0  0  0
    4.4690   14.6640   19.9600 C   0  0  0  0  0  0  0  0  0  0  0  0
    4.1360   15.1220   18.5410 C   0  0  0  0  0  0  0  0  0  0  0  0
    2.7580   14.6330   18.1030 C   0  0  0  0  0  0  0  0  0  0  0  0
    2.3350   16.3090   20.5740 H   0  0  0  0  0  0  0  0  0  0  0  0
    1.2000   15.0670   21.0390 H   0  0  0  0  0  0  0  0  0  0  0  0
    3.4390   14.4900   21.8470 H   0  0  0  0  0  0  0  0  0  0  0  0
    2.9290   13.3140   20.6430 H   0  0  0  0  0  0  0  0  0  0  0  0
    5.0990   13.7680   19.9300 H   0  0  0  0  0  0  0  0  0  0  0  0
    5.0640   15.4420   20.4530 H   0  0  0  0  0  0  0  0  0  0  0  0
    4.9040   14.7630   17.8460 H   0  0  0  0  0  0  0  0  0  0  0  0
    4.1670   16.2190   18.4940 H   0  0  0  0  0  0  0  0  0  0  0  0
    2.7540   13.5340   18.1130 H   0  0  0  0  0  0  0  0  0  0  0  0
    2.5820   14.9470   17.0680 H   0  0  0  0  0  0  0  0  0  0  0  0
  1 19  1  0  0  0  0
  1  2  1  0  0  0  0
  2 12  1  0  0  0  0
  2 11  1  0  0  0  0
  3  2  1  0  0  0  0
  3  8  1  0  0  0  0
  4  3  2  0  0  0  0
  5  6  2  0  0  0  0
  5  4  1  0  0  0  0
  6  7  1  0  0  0  0
  7 14  1  0  0  0  0
  7  8  2  0  0  0  0
  8 46  1  0  0  0  0
  9  4  1  0  0  0  0
  9  1  1  0  0  0  0
 10  9  2  0  0  0  0
 13  5  1  0  0  0  0
 15 20  2  0  0  0  0
 15 16  1  0  0  0  0
 16 21  1  0  0  0  0
 16 17  2  0  0  0  0
 17 22  1  0  0  0  0
 18 17  1  0  0  0  0
 18 23  1  0  0  0  0
 19 18  2  0  0  0  0
 20 19  1  0  0  0  0
 24 20  1  0  0  0  0
 25 26  1  0  0  0  0
 25 15  1  0  0  0  0
 26 29  1  0  0  0  0
 27 28  1  0  0  0  0
 27 26  1  0  0  0  0
 28 32  1  0  0  0  0
 28 25  1  0  0  0  0
 30 26  1  0  0  0  0
 31 28  1  0  0  0  0
 33 35  1  0  0  0  0
 33 40  1  0  0  0  0
 33 25  1  0  0  0  0
 34 33  1  0  0  0  0
 36 37  1  0  0  0  0
 36 40  1  0  0  0  0
 37 38  2  0  0  0  0
 38 39  1  0  0  0  0
 40 39  2  0  0  0  0
 41 37  1  0  0  0  0
 42 43  1  0  0  0  0
 42 36  1  0  0  0  0
 44 42  1  0  0  0  0
 45 42  1  0  0  0  0
 46 47  1  0  0  0  0
 46 49  1  0  0  0  0
 48 46  1  0  0  0  0
 50 53  1  0  0  0  0
 50 51  1  0  0  0  0
 50  6  1  0  0  0  0
 52 50  1  0  0  0  0
 53 54  1  0  0  0  0
 54 59  1  0  0  0  0
 54 55  1  0  0  0  0
 54 60  1  0  0  0  0
 55 61  1  0  0  0  0
 56 64  1  0  0  0  0
 56 55  1  0  0  0  0
 57 56  1  0  0  0  0
 58 67  1  0  0  0  0
 58 57  1  0  0  0  0
 58 53  1  0  0  0  0
 62 55  1  0  0  0  0
 63 56  1  0  0  0  0
 65 57  1  0  0  0  0
 66 57  1  0  0  0  0
 68 58  1  0  0  0  0
M  END
>  <MODEL>
29

>  <REMARK>
 VINA RESULT:    -6.727      3.444      8.783
 INTER + INTRA:         -10.840
 INTER:                  -9.998
 INTRA:                  -0.842
 UNBOUND:                -1.163
  Name = 
  8 active torsions:
  status: ('A' for Active; 'I' for Inactive)
    1  A    between atoms: C_1  and  N_2
    2  A    between atoms: C_6  and  C_7
    3  A    between atoms: C_7  and  C_8
    4  A    between atoms: C_8  and  C_12
    5  A    between atoms: C_16  and  N_18
    6  A    between atoms: C_23  and  C_24
    7  A    between atoms: C_24  and  N_25
    8  A    between atoms: C_32  and  C_33
                            x       y       z     vdW  Elec       q    Type
                         _______ _______ _______ _____ _____    ______ ____

>  <TORSDO>
F 8

$$$$
=
 OpenBabel07192307433D

 68 73  0  0  0  0  0  0  0  0999 V2000
    2.1440    7.6380   19.2190 N   0  0  0  0  0  0  0  0  0  0  0  0
    2.3970    6.2140   19.3910 C   0  0  0  0  0  0  0  0  0  0  0  0
    3.3700    5.8930   18.3050 C   0  0  0  0  0  0  0  0  0  0  0  0
    3.6410    7.0400   17.5690 C   0  0  0  0  0  0  0  0  0  0  0  0
    4.4980    7.0440   16.4860 C   0  0  0  0  0  0  0  0  0  0  0  0
    5.1180    5.8360   16.1270 C   0  0  0  0  0  0  0  0  0  0  0  0
    4.8460    4.6670   16.8750 C   0  0  0  0  0  0  0  0  0  0  0  0
    3.9680    4.6790   17.9780 C   0  0  0  0  0  0  0  0  0  0  0  0
    2.8680    8.1530   18.1370 C   0  0  0  0  0  0  0  0  0  0  0  0
    2.9140    9.2730   17.6630 O   0  0  0  0  0  0  0  0  0  0  0  0
    1.4660    5.6550   19.2490 H   0  0  0  0  0  0  0  0  0  0  0  0
    2.8370    6.0320   20.3770 H   0  0  0  0  0  0  0  0  0  0  0  0
    4.6850    7.9610   15.9330 H   0  0  0  0  0  0  0  0  0  0  0  0
    5.3280    3.7300   16.5900 H   0  0  0  0  0  0  0  0  0  0  0  0
    0.0200   10.4640   20.5630 C   0  0  0  0  0  0  0  0  0  0  0  0
   -0.5160    9.8210   21.6900 C   0  0  0  0  0  0  0  0  0  0  0  0
   -0.1970    8.5020   22.0030 C   0  0  0  0  0  0  0  0  0  0  0  0
    0.6800    7.7790   21.1950 C   0  0  0  0  0  0  0  0  0  0  0  0
    1.2430    8.3560   20.0550 C   0  0  0  0  0  0  0  0  0  0  0  0
    0.8910    9.6880   19.7580 C   0  0  0  0  0  0  0  0  0  0  0  0
   -1.2200   10.3530   22.3320 H   0  0  0  0  0  0  0  0  0  0  0  0
   -0.6400    8.0290   22.8770 H   0  0  0  0  0  0  0  0  0  0  0  0
    0.8940    6.7550   21.4830 H   0  0  0  0  0  0  0  0  0  0  0  0
    1.2990   10.1710   18.8750 H   0  0  0  0  0  0  0  0  0  0  0  0
   -0.3300   11.9910   20.2100 C   0  0  0  0  0  0  0  0  0  0  0  0
   -1.2150   12.7850   21.2170 C   0  0  0  0  0  0  0  0  0  0  0  0
   -0.3440   13.9450   21.0940 O   0  0  0  0  0  0  0  0  0  0  0  0
    0.7190   13.0630   20.6330 C   0  0  0  0  0  0  0  0  0  0  0  0
   -1.2230   12.4140   22.2490 H   0  0  0  0  0  0  0  0  0  0  0  0
   -2.2380   13.0140   20.9150 H   0  0  0  0  0  0  0  0  0  0  0  0
    1.3070   13.5170   19.8290 H   0  0  0  0  0  0  0  0  0  0  0  0
    1.3860   12.7970   21.4600 H   0  0  0  0  0  0  0  0  0  0  0  0
   -0.7180   12.1610   18.7260 C   0  0  0  0  0  0  0  0  0  0  0  0
   -1.0070   13.2000   18.5270 H   0  0  0  0  0  0  0  0  0  0  0  0
    0.1580   11.9820   18.0880 H   0  0  0  0  0  0  0  0  0  0  0  0
   -3.1490   11.4250   18.5950 N   0  0  0  0  0  0  0  0  0  0  0  0
   -3.8030   10.3700   18.0370 C   0  0  0  0  0  0  0  0  0  0  0  0
   -2.9420    9.6020   17.4150 N   0  0  0  0  0  0  0  0  0  0  0  0
   -1.6980   10.1640   17.5650 N   0  0  0  0  0  0  0  0  0  0  0  0
   -1.8200   11.2570   18.2920 C   0  0  0  0  0  0  0  0  0  0  0  0
   -4.8710   10.2060   18.1070 H   0  0  0  0  0  0  0  0  0  0  0  0
   -3.7580   12.4910   19.3430 C   0  0  0  0  0  0  0  0  0  0  0  0
   -4.5860   12.8930   18.7540 H   0  0  0  0  0  0  0  0  0  0  0  0
   -3.0110   13.2640   19.5360 H   0  0  0  0  0  0  0  0  0  0  0  0
   -4.1330   12.1060   20.2950 H   0  0  0  0  0  0  0  0  0  0  0  0
    3.6780    3.4350   18.7730 C   0  0  0  0  0  0  0  0  0  0  0  0
    4.2060    3.4900   20.0270 F   0  0  0  0  0  0  0  0  0  0  0  0
    2.3510    3.1820   18.9340 F   0  0  0  0  0  0  0  0  0  0  0  0
    4.2080    2.3210   18.1970 F   0  0  0  0  0  0  0  0  0  0  0  0
    6.0410    5.7790   14.9240 C   0  0  0  0  0  0  0  0  0  0  0  0
    7.0180    6.1370   15.2770 H   0  0  0  0  0  0  0  0  0  0  0  0
    5.7140    6.4860   14.1510 H   0  0  0  0  0  0  0  0  0  0  0  0
    6.1730    4.4320   14.3570 N   0  0  0  0  0  0  0  0  0  0  0  0
    4.8840    3.8140   14.0090 C   0  0  0  0  0  0  0  0  0  0  0  0
    4.6110    3.7490   12.5070 C   0  0  0  0  0  0  0  0  0  0  0  0
    5.7080    2.9810   11.7710 C   0  0  0  0  0  0  0  0  0  0  0  0
    7.0750    3.1470   12.4310 C   0  0  0  0  0  0  0  0  0  0  0  0
    7.1480    4.4300   13.2560 C   0  0  0  0  0  0  0  0  0  0  0  0
    4.8930    2.7900   14.4050 H   0  0  0  0  0  0  0  0  0  0  0  0
    4.0390    4.3090   14.5030 H   0  0  0  0  0  0  0  0  0  0  0  0
    3.6420    3.2740   12.3200 H   0  0  0  0  0  0  0  0  0  0  0  0
    4.5440    4.7680   12.1050 H   0  0  0  0  0  0  0  0  0  0  0  0
    5.7450    3.3220   10.7310 H   0  0  0  0  0  0  0  0  0  0  0  0
    5.4580    1.9140   11.7360 H   0  0  0  0  0  0  0  0  0  0  0  0
    7.8590    3.1440   11.6650 H   0  0  0  0  0  0  0  0  0  0  0  0
    7.2760    2.2840   13.0800 H   0  0  0  0  0  0  0  0  0  0  0  0
    6.9880    5.2870   12.5880 H   0  0  0  0  0  0  0  0  0  0  0  0
    8.1570    4.5270   13.6720 H   0  0  0  0  0  0  0  0  0  0  0  0
  1  2  1  0  0  0  0
  1 19  1  0  0  0  0
  2 12  1  0  0  0  0
  3  2  1  0  0  0  0
  4  9  1  0  0  0  0
  4  3  2  0  0  0  0
  5  4  1  0  0  0  0
  6  5  2  0  0  0  0
  6  7  1  0  0  0  0
  7  8  2  0  0  0  0
  8  3  1  0  0  0  0
  8 46  1  0  0  0  0
  9  1  1  0  0  0  0
 10  9  2  0  0  0  0
 11  2  1  0  0  0  0
 13  5  1  0  0  0  0
 14  7  1  0  0  0  0
 15 16  1  0  0  0  0
 16 17  2  0  0  0  0
 16 21  1  0  0  0  0
 17 22  1  0  0  0  0
 18 23  1  0  0  0  0
 18 17  1  0  0  0  0
 19 18  2  0  0  0  0
 20 19  1  0  0  0  0
 20 15  2  0  0  0  0
 24 20  1  0  0  0  0
 25 15  1  0  0  0  0
 25 28  1  0  0  0  0
 25 26  1  0  0  0  0
 26 29  1  0  0  0  0
 27 26  1  0  0  0  0
 28 27  1  0  0  0  0
 28 32  1  0  0  0  0
 30 26  1  0  0  0  0
 31 28  1  0  0  0  0
 33 25  1  0  0  0  0
 34 33  1  0  0  0  0
 35 33  1  0  0  0  0
 36 42  1  0  0  0  0
 37 41  1  0  0  0  0
 37 36  1  0  0  0  0
 38 39  1  0  0  0  0
 38 37  2  0  0  0  0
 39 40  2  0  0  0  0
 40 36  1  0  0  0  0
 40 33  1  0  0  0  0
 42 44  1  0  0  0  0
 42 45  1  0  0  0  0
 43 42  1  0  0  0  0
 46 48  1  0  0  0  0
 46 47  1  0  0  0  0
 49 46  1  0  0  0  0
 50 51  1  0  0  0  0
 50  6  1  0  0  0  0
 52 50  1  0  0  0  0
 53 50  1  0  0  0  0
 54 53  1  0  0  0  0
 54 59  1  0  0  0  0
 54 60  1  0  0  0  0
 55 54  1  0  0  0  0
 56 57  1  0  0  0  0
 56 55  1  0  0  0  0
 57 66  1  0  0  0  0
 57 58  1  0  0  0  0
 58 68  1  0  0  0  0
 58 53  1  0  0  0  0
 61 55  1  0  0  0  0
 62 55  1  0  0  0  0
 63 56  1  0  0  0  0
 64 56  1  0  0  0  0
 65 57  1  0  0  0  0
 67 58  1  0  0  0  0
M  END
>  <MODEL>
30

>  <REMARK>
 VINA RESULT:    -6.724      2.036      2.918
 INTER + INTRA:         -10.836
 INTER:                 -10.690
 INTRA:                  -0.145
 UNBOUND:                -1.163
  Name = 
  8 active torsions:
  status: ('A' for Active; 'I' for Inactive)
    1  A    between atoms: C_1  and  N_2
    2  A    between atoms: C_6  and  C_7
    3  A    between atoms: C_7  and  C_8
    4  A    between atoms: C_8  and  C_12
    5  A    between atoms: C_16  and  N_18
    6  A    between atoms: C_23  and  C_24
    7  A    between atoms: C_24  and  N_25
    8  A    between atoms: C_32  and  C_33
                            x       y       z     vdW  Elec       q    Type
                         _______ _______ _______ _____ _____    ______ ____

>  <TORSDO>
F 8

$$$$
=
 OpenBabel07192307433D

 68 73  0  0  0  0  0  0  0  0999 V2000
    2.0950    7.1270   19.5640 N   0  0  0  0  0  0  0  0  0  0  0  0
    1.9160    5.7120   19.8550 C   0  0  0  0  0  0  0  0  0  0  0  0
    2.9160    5.0390   18.9730 C   0  0  0  0  0  0  0  0  0  0  0  0
    3.6000    5.9940   18.2330 C   0  0  0  0  0  0  0  0  0  0  0  0
    4.5790    5.6650   17.3150 C   0  0  0  0  0  0  0  0  0  0  0  0
    4.8890    4.3070   17.1350 C   0  0  0  0  0  0  0  0  0  0  0  0
    4.1940    3.3310   17.8890 C   0  0  0  0  0  0  0  0  0  0  0  0
    3.1980    3.6840   18.8210 C   0  0  0  0  0  0  0  0  0  0  0  0
    3.0880    7.3230   18.5960 C   0  0  0  0  0  0  0  0  0  0  0  0
    3.5130    8.3380   18.0760 O   0  0  0  0  0  0  0  0  0  0  0  0
    0.9000    5.4060   19.5860 H   0  0  0  0  0  0  0  0  0  0  0  0
    2.1350    5.5190   20.9110 H   0  0  0  0  0  0  0  0  0  0  0  0
    5.0920    6.4410   16.7520 H   0  0  0  0  0  0  0  0  0  0  0  0
    4.4370    2.2770   17.7430 H   0  0  0  0  0  0  0  0  0  0  0  0
    0.6480   10.5300   20.3560 C   0  0  0  0  0  0  0  0  0  0  0  0
   -0.2010   10.1690   21.4150 C   0  0  0  0  0  0  0  0  0  0  0  0
   -0.3020    8.8510   21.8560 C   0  0  0  0  0  0  0  0  0  0  0  0
    0.4540    7.8460   21.2530 C   0  0  0  0  0  0  0  0  0  0  0  0
    1.3120    8.1360   20.1910 C   0  0  0  0  0  0  0  0  0  0  0  0
    1.3830    9.4760   19.7580 C   0  0  0  0  0  0  0  0  0  0  0  0
   -0.8190   10.9270   21.8960 H   0  0  0  0  0  0  0  0  0  0  0  0
   -0.9790    8.6030   22.6700 H   0  0  0  0  0  0  0  0  0  0  0  0
    0.3360    6.8370   21.6350 H   0  0  0  0  0  0  0  0  0  0  0  0
    2.0310    9.7430   18.9280 H   0  0  0  0  0  0  0  0  0  0  0  0
    0.7820   12.0510   19.8570 C   0  0  0  0  0  0  0  0  0  0  0  0
    2.0100   12.8720   20.3550 C   0  0  0  0  0  0  0  0  0  0  0  0
    2.2140   13.4090   19.0170 O   0  0  0  0  0  0  0  0  0  0  0  0
    1.4750   12.2750   18.4800 C   0  0  0  0  0  0  0  0  0  0  0  0
    2.8810   12.2900   20.6760 H   0  0  0  0  0  0  0  0  0  0  0  0
    1.8230   13.6630   21.0840 H   0  0  0  0  0  0  0  0  0  0  0  0
    0.8270   12.5660   17.6480 H   0  0  0  0  0  0  0  0  0  0  0  0
    2.1620   11.4910   18.1430 H   0  0  0  0  0  0  0  0  0  0  0  0
   -0.5690   12.7950   19.9180 C   0  0  0  0  0  0  0  0  0  0  0  0
   -0.6190   13.5530   19.1270 H   0  0  0  0  0  0  0  0  0  0  0  0
   -1.3890   12.0990   19.6980 H   0  0  0  0  0  0  0  0  0  0  0  0
   -2.0020   13.3480   21.9450 N   0  0  0  0  0  0  0  0  0  0  0  0
   -1.8320   14.1100   23.0610 C   0  0  0  0  0  0  0  0  0  0  0  0
   -0.6300   14.6330   23.0540 N   0  0  0  0  0  0  0  0  0  0  0  0
    0.0020   14.2070   21.9120 N   0  0  0  0  0  0  0  0  0  0  0  0
   -0.8310   13.4440   21.2340 C   0  0  0  0  0  0  0  0  0  0  0  0
   -2.5850   14.2500   23.8260 H   0  0  0  0  0  0  0  0  0  0  0  0
   -3.1830   12.6000   21.6090 C   0  0  0  0  0  0  0  0  0  0  0  0
   -3.9810   12.8950   22.2950 H   0  0  0  0  0  0  0  0  0  0  0  0
   -2.9680   11.5340   21.7010 H   0  0  0  0  0  0  0  0  0  0  0  0
   -3.4780   12.8220   20.5800 H   0  0  0  0  0  0  0  0  0  0  0  0
    2.4590    2.6460   19.6210 C   0  0  0  0  0  0  0  0  0  0  0  0
    1.1080    2.7650   19.4970 F   0  0  0  0  0  0  0  0  0  0  0  0
    2.7580    1.3660   19.2720 F   0  0  0  0  0  0  0  0  0  0  0  0
    2.7170    2.7440   20.9550 F   0  0  0  0  0  0  0  0  0  0  0  0
    5.9310    3.8890   16.1140 C   0  0  0  0  0  0  0  0  0  0  0  0
    5.9260    2.7900   16.1120 H   0  0  0  0  0  0  0  0  0  0  0  0
    6.9340    4.1930   16.4400 H   0  0  0  0  0  0  0  0  0  0  0  0
    5.6580    4.3970   14.7650 N   0  0  0  0  0  0  0  0  0  0  0  0
    6.6660    5.3560   14.2860 C   0  0  0  0  0  0  0  0  0  0  0  0
    7.6010    4.7920   13.2160 C   0  0  0  0  0  0  0  0  0  0  0  0
    6.8230    4.2900   12.0010 C   0  0  0  0  0  0  0  0  0  0  0  0
    5.4500    3.7370   12.3790 C   0  0  0  0  0  0  0  0  0  0  0  0
    5.4100    3.2840   13.8360 C   0  0  0  0  0  0  0  0  0  0  0  0
    6.1280    6.2130   13.8610 H   0  0  0  0  0  0  0  0  0  0  0  0
    7.2700    5.7680   15.1040 H   0  0  0  0  0  0  0  0  0  0  0  0
    8.3180    5.5580   12.9010 H   0  0  0  0  0  0  0  0  0  0  0  0
    8.1880    3.9680   13.6420 H   0  0  0  0  0  0  0  0  0  0  0  0
    7.4140    3.5220   11.4910 H   0  0  0  0  0  0  0  0  0  0  0  0
    6.6900    5.1050   11.2790 H   0  0  0  0  0  0  0  0  0  0  0  0
    5.1910    2.9040   11.7160 H   0  0  0  0  0  0  0  0  0  0  0  0
    4.6860    4.5090   12.2150 H   0  0  0  0  0  0  0  0  0  0  0  0
    6.1480    2.4830   13.9770 H   0  0  0  0  0  0  0  0  0  0  0  0
    4.4230    2.8560   14.0480 H   0  0  0  0  0  0  0  0  0  0  0  0
  1  2  1  0  0  0  0
  1 19  1  0  0  0  0
  2 12  1  0  0  0  0
  3  2  1  0  0  0  0
  4  9  1  0  0  0  0
  4  3  2  0  0  0  0
  5  4  1  0  0  0  0
  6  5  2  0  0  0  0
  6  7  1  0  0  0  0
  7  8  2  0  0  0  0
  8  3  1  0  0  0  0
  8 46  1  0  0  0  0
  9  1  1  0  0  0  0
 10  9  2  0  0  0  0
 11  2  1  0  0  0  0
 13  5  1  0  0  0  0
 14  7  1  0  0  0  0
 15 16  1  0  0  0  0
 16 17  2  0  0  0  0
 16 21  1  0  0  0  0
 17 22  1  0  0  0  0
 18 23  1  0  0  0  0
 18 17  1  0  0  0  0
 19 18  2  0  0  0  0
 20 19  1  0  0  0  0
 20 15  2  0  0  0  0
 24 20  1  0  0  0  0
 25 33  1  0  0  0  0
 25 26  1  0  0  0  0
 25 15  1  0  0  0  0
 26 29  1  0  0  0  0
 26 30  1  0  0  0  0
 27 26  1  0  0  0  0
 28 27  1  0  0  0  0
 28 25  1  0  0  0  0
 31 28  1  0  0  0  0
 32 28  1  0  0  0  0
 33 40  1  0  0  0  0
 34 33  1  0  0  0  0
 35 33  1  0  0  0  0
 36 37  1  0  0  0  0
 37 41  1  0  0  0  0
 38 37  2  0  0  0  0
 39 38  1  0  0  0  0
 40 39  2  0  0  0  0
 40 36  1  0  0  0  0
 42 44  1  0  0  0  0
 42 36  1  0  0  0  0
 42 43  1  0  0  0  0
 45 42  1  0  0  0  0
 46 49  1  0  0  0  0
 47 46  1  0  0  0  0
 48 46  1  0  0  0  0
 50 52  1  0  0  0  0
 50  6  1  0  0  0  0
 51 50  1  0  0  0  0
 53 50  1  0  0  0  0
 54 53  1  0  0  0  0
 54 60  1  0  0  0  0
 55 62  1  0  0  0  0
 55 54  1  0  0  0  0
 56 57  1  0  0  0  0
 56 55  1  0  0  0  0
 57 58  1  0  0  0  0
 58 67  1  0  0  0  0
 58 68  1  0  0  0  0
 58 53  1  0  0  0  0
 59 54  1  0  0  0  0
 61 55  1  0  0  0  0
 63 56  1  0  0  0  0
 64 56  1  0  0  0  0
 65 57  1  0  0  0  0
 66 57  1  0  0  0  0
M  END
>  <MODEL>
31

>  <REMARK>
 VINA RESULT:    -6.719      2.609      3.574
 INTER + INTRA:         -10.829
 INTER:                 -10.481
 INTRA:                  -0.348
 UNBOUND:                -1.163
  Name = 
  8 active torsions:
  status: ('A' for Active; 'I' for Inactive)
    1  A    between atoms: C_1  and  N_2
    2  A    between atoms: C_6  and  C_7
    3  A    between atoms: C_7  and  C_8
    4  A    between atoms: C_8  and  C_12
    5  A    between atoms: C_16  and  N_18
    6  A    between atoms: C_23  and  C_24
    7  A    between atoms: C_24  and  N_25
    8  A    between atoms: C_32  and  C_33
                            x       y       z     vdW  Elec       q    Type
                         _______ _______ _______ _____ _____    ______ ____

>  <TORSDO>
F 8

$$$$
