=
 OpenBabel07192307433D

 48 51  0  0  1  0  0  0  0  0999 V2000
    2.1950    7.3340   19.4800 N   0  0  0  0  0  0  0  0  0  0  0  0
    1.6680    8.5590   19.1170 C   0  0  0  0  0  0  0  0  0  0  0  0
    1.6990    9.0830   18.0100 O   0  0  0  0  0  0  0  0  0  0  0  0
    2.0460    7.0950   20.4580 H   0  0  0  0  0  0  0  0  0  0  0  0
    1.0030    9.2600   20.2520 C   0  0  0  0  0  0  0  0  0  0  0  0
    0.7090    8.5760   21.4180 C   0  0  0  0  0  0  0  0  0  0  0  0
    0.1020    9.1840   22.4600 N   0  0  0  0  0  0  0  0  0  0  0  0
   -0.1860   10.5000   22.2650 C   0  0  0  0  0  0  0  0  0  0  0  0
    0.1120   11.2220   21.1010 C   0  0  0  0  0  0  0  0  0  0  0  0
   -0.2010   12.5490   20.9450 N   0  0  0  0  0  0  0  0  0  0  0  0
   -0.4930   13.4570   22.0480 C   0  0  0  0  0  0  0  0  0  0  0  0
   -0.1540   14.8410   21.4910 C   0  0  0  0  0  0  0  0  0  0  0  0
   -0.3430   14.6770   19.9910 C   0  0  0  0  0  0  0  0  0  0  0  0
    0.1850   13.2680   19.7380 C   0  0  0  0  0  0  0  0  0  0  0  0
    0.7130   10.5830   20.0690 N   0  0  0  0  0  0  0  0  0  0  0  0
    0.9470    7.5260   21.5470 H   0  0  0  0  0  0  0  0  0  0  0  0
   -0.6910   10.9700   23.1030 H   0  0  0  0  0  0  0  0  0  0  0  0
    0.1110   13.2560   22.9400 H   0  0  0  0  0  0  0  0  0  0  0  0
   -1.5540   13.3940   22.3100 H   0  0  0  0  0  0  0  0  0  0  0  0
    0.8920   15.0850   21.7090 H   0  0  0  0  0  0  0  0  0  0  0  0
   -0.7820   15.6270   21.9160 H   0  0  0  0  0  0  0  0  0  0  0  0
   -1.4090   14.7320   19.7390 H   0  0  0  0  0  0  0  0  0  0  0  0
    0.1890   15.4350   19.4090 H   0  0  0  0  0  0  0  0  0  0  0  0
    1.2770   13.2850   19.6310 H   0  0  0  0  0  0  0  0  0  0  0  0
   -0.2600   12.8390   18.8340 H   0  0  0  0  0  0  0  0  0  0  0  0
    4.7890    5.6750   17.3130 C   0  0  0  0  0  0  0  0  0  0  0  0
    4.1280    4.4560   17.0940 C   0  0  0  0  0  0  0  0  0  0  0  0
    2.8710    4.2120   17.6520 C   0  0  0  0  0  0  0  0  0  0  0  0
    2.2520    5.1820   18.4390 C   0  0  0  0  0  0  0  0  0  0  0  0
    2.8810    6.4040   18.6790 C   0  0  0  0  0  0  0  0  0  0  0  0
    4.1410    6.6390   18.1200 C   0  0  0  0  0  0  0  0  0  0  0  0
    4.5690    3.6710   16.4860 H   0  0  0  0  0  0  0  0  0  0  0  0
    2.3730    3.2630   17.4690 H   0  0  0  0  0  0  0  0  0  0  0  0
    1.2730    4.9670   18.8590 H   0  0  0  0  0  0  0  0  0  0  0  0
    4.6420    7.5830   18.3050 H   0  0  0  0  0  0  0  0  0  0  0  0
    6.1650    5.9770   16.7270 C   0  0  2  0  0  0  0  0  0  0  0  0
    6.1230    5.9390   15.2760 N   0  0  0  0  0  0  0  0  0  0  0  0
    6.9480    4.9770   14.7490 C   0  0  0  0  0  0  0  0  0  0  0  0
    7.0510    4.7190   13.5640 O   0  0  0  0  0  0  0  0  0  0  0  0
    7.6050    4.3670   15.7610 N   0  0  0  0  0  0  0  0  0  0  0  0
    7.1840    4.8360   16.9690 C   0  0  0  0  0  0  0  0  0  0  0  0
    7.5770    4.4240   18.0510 O   0  0  0  0  0  0  0  0  0  0  0  0
    5.4570    6.4330   14.6960 H   0  0  0  0  0  0  0  0  0  0  0  0
    8.2320    3.5910   15.6370 H   0  0  0  0  0  0  0  0  0  0  0  0
    6.8240    7.2880   17.1740 C   0  0  0  0  0  0  0  0  0  0  0  0
    7.2720    7.8200   16.3260 H   0  0  0  0  0  0  0  0  0  0  0  0
    7.6270    7.1060   17.8980 H   0  0  0  0  0  0  0  0  0  0  0  0
    6.1020    7.9540   17.6590 H   0  0  0  0  0  0  0  0  0  0  0  0
  1  4  1  0  0  0  0
  2  1  1  0  0  0  0
  2  5  1  0  0  0  0
  3  2  2  0  0  0  0
  5  6  1  0  0  0  0
  6 16  1  0  0  0  0
  6  7  2  0  0  0  0
  8  7  1  0  0  0  0
  8 17  1  0  0  0  0
  9  8  2  0  0  0  0
 10  9  1  0  0  0  0
 10 11  1  0  0  0  0
 11 19  1  0  0  0  0
 11 18  1  0  0  0  0
 12 20  1  0  0  0  0
 12 21  1  0  0  0  0
 12 11  1  0  0  0  0
 13 12  1  0  0  0  0
 14 13  1  0  0  0  0
 14 10  1  0  0  0  0
 15  5  2  0  0  0  0
 15  9  1  0  0  0  0
 22 13  1  0  0  0  0
 23 13  1  0  0  0  0
 24 14  1  0  0  0  0
 25 14  1  0  0  0  0
 26 31  1  0  0  0  0
 27 26  2  0  0  0  0
 27 28  1  0  0  0  0
 28 29  2  0  0  0  0
 29 30  1  0  0  0  0
 29 34  1  0  0  0  0
 30  1  1  0  0  0  0
 31 35  1  0  0  0  0
 31 30  2  0  0  0  0
 32 27  1  0  0  0  0
 33 28  1  0  0  0  0
 36 41  1  0  0  0  0
 36 45  1  1  0  0  0
 36 26  1  0  0  0  0
 37 36  1  0  0  0  0
 38 37  1  0  0  0  0
 38 40  1  0  0  0  0
 39 38  2  0  0  0  0
 40 41  1  0  0  0  0
 41 42  2  0  0  0  0
 43 37  1  0  0  0  0
 44 40  1  0  0  0  0
 45 48  1  0  0  0  0
 45 47  1  0  0  0  0
 46 45  1  0  0  0  0
M  END
>  <MODEL>
1

>  <REMARK>
 VINA RESULT:    -8.854      0.000      0.000
 INTER + INTRA:         -10.978
 INTER:                 -10.340
 INTRA:                  -0.638
 UNBOUND:                -0.312
  Name = 
  4 active torsions:
  status: ('A' for Active; 'I' for Inactive)
    1  A    between atoms: C_1  and  C_2
    2  A    between atoms: C_2  and  C_3
    3  A    between atoms: C_7  and  N_8
    4  A    between atoms: C_9  and  C_11
                            x       y       z     vdW  Elec       q    Type
                         _______ _______ _______ _____ _____    ______ ____

>  <TORSDO>
F 4

$$$$
=
 OpenBabel07192307433D

 48 51  0  0  1  0  0  0  0  0999 V2000
    1.2040    8.0200   20.4600 N   0  0  0  0  0  0  0  0  0  0  0  0
    1.9790    7.9420   19.3180 C   0  0  0  0  0  0  0  0  0  0  0  0
    2.1610    8.8180   18.4820 O   0  0  0  0  0  0  0  0  0  0  0  0
    1.2030    7.1670   21.0160 H   0  0  0  0  0  0  0  0  0  0  0  0
    2.6340    6.6130   19.1570 C   0  0  0  0  0  0  0  0  0  0  0  0
    2.3700    5.5910   20.0500 C   0  0  0  0  0  0  0  0  0  0  0  0
    2.9540    4.3790   19.9310 N   0  0  0  0  0  0  0  0  0  0  0  0
    3.8050    4.2560   18.8770 C   0  0  0  0  0  0  0  0  0  0  0  0
    4.0830    5.2690   17.9480 C   0  0  0  0  0  0  0  0  0  0  0  0
    4.9540    5.1030   16.9010 N   0  0  0  0  0  0  0  0  0  0  0  0
    5.3750    3.8060   16.3830 C   0  0  0  0  0  0  0  0  0  0  0  0
    5.7750    4.0950   14.9360 C   0  0  0  0  0  0  0  0  0  0  0  0
    6.1750    5.5630   14.9630 C   0  0  0  0  0  0  0  0  0  0  0  0
    5.1610    6.1680   15.9290 C   0  0  0  0  0  0  0  0  0  0  0  0
    3.4900    6.4760   18.0980 N   0  0  0  0  0  0  0  0  0  0  0  0
    1.6880    5.7160   20.8840 H   0  0  0  0  0  0  0  0  0  0  0  0
    4.2820    3.2840   18.8060 H   0  0  0  0  0  0  0  0  0  0  0  0
    4.5770    3.0550   16.4070 H   0  0  0  0  0  0  0  0  0  0  0  0
    6.2320    3.4380   16.9560 H   0  0  0  0  0  0  0  0  0  0  0  0
    4.9110    3.9570   14.2750 H   0  0  0  0  0  0  0  0  0  0  0  0
    6.5780    3.4410   14.5860 H   0  0  0  0  0  0  0  0  0  0  0  0
    7.1890    5.6670   15.3640 H   0  0  0  0  0  0  0  0  0  0  0  0
    6.1440    6.0310   13.9740 H   0  0  0  0  0  0  0  0  0  0  0  0
    4.2260    6.3990   15.4030 H   0  0  0  0  0  0  0  0  0  0  0  0
    5.5550    7.0820   16.3870 H   0  0  0  0  0  0  0  0  0  0  0  0
   -0.9910   11.0740   20.6260 C   0  0  0  0  0  0  0  0  0  0  0  0
   -1.0060   11.2440   22.0190 C   0  0  0  0  0  0  0  0  0  0  0  0
   -0.3080   10.3690   22.8550 C   0  0  0  0  0  0  0  0  0  0  0  0
    0.4160    9.3090   22.3140 C   0  0  0  0  0  0  0  0  0  0  0  0
    0.4510    9.1090   20.9330 C   0  0  0  0  0  0  0  0  0  0  0  0
   -0.2530    9.9870   20.1040 C   0  0  0  0  0  0  0  0  0  0  0  0
   -1.5540   12.0580   22.4870 H   0  0  0  0  0  0  0  0  0  0  0  0
   -0.3290   10.5190   23.9320 H   0  0  0  0  0  0  0  0  0  0  0  0
    0.9520    8.6450   22.9870 H   0  0  0  0  0  0  0  0  0  0  0  0
   -0.2390    9.8370   19.0290 H   0  0  0  0  0  0  0  0  0  0  0  0
   -1.7460   12.0040   19.6800 C   0  0  2  0  0  0  0  0  0  0  0  0
   -2.4620   11.2400   18.6740 N   0  0  0  0  0  0  0  0  0  0  0  0
   -2.0420   11.5240   17.3990 C   0  0  0  0  0  0  0  0  0  0  0  0
   -2.4560   10.9800   16.3910 O   0  0  0  0  0  0  0  0  0  0  0  0
   -1.0960   12.4880   17.4560 N   0  0  0  0  0  0  0  0  0  0  0  0
   -0.8040   12.8070   18.7490 C   0  0  0  0  0  0  0  0  0  0  0  0
    0.0500   13.6130   19.0900 O   0  0  0  0  0  0  0  0  0  0  0  0
   -3.0840   10.4660   18.8610 H   0  0  0  0  0  0  0  0  0  0  0  0
   -0.5960   12.8330   16.6560 H   0  0  0  0  0  0  0  0  0  0  0  0
   -2.7110   13.0020   20.3310 C   0  0  0  0  0  0  0  0  0  0  0  0
   -3.7320   12.6040   20.3700 H   0  0  0  0  0  0  0  0  0  0  0  0
   -2.7550   13.9430   19.7690 H   0  0  0  0  0  0  0  0  0  0  0  0
   -2.3990   13.2540   21.3510 H   0  0  0  0  0  0  0  0  0  0  0  0
  1 30  1  0  0  0  0
  1  4  1  0  0  0  0
  2  1  1  0  0  0  0
  3  2  2  0  0  0  0
  5  2  1  0  0  0  0
  5  6  1  0  0  0  0
  6 16  1  0  0  0  0
  7  6  2  0  0  0  0
  8  7  1  0  0  0  0
  9 15  1  0  0  0  0
  9  8  2  0  0  0  0
 10  9  1  0  0  0  0
 11 18  1  0  0  0  0
 11 10  1  0  0  0  0
 11 19  1  0  0  0  0
 12 13  1  0  0  0  0
 12 11  1  0  0  0  0
 13 22  1  0  0  0  0
 13 14  1  0  0  0  0
 14 25  1  0  0  0  0
 14 10  1  0  0  0  0
 15  5  2  0  0  0  0
 17  8  1  0  0  0  0
 20 12  1  0  0  0  0
 21 12  1  0  0  0  0
 23 13  1  0  0  0  0
 24 14  1  0  0  0  0
 26 27  1  0  0  0  0
 27 32  1  0  0  0  0
 27 28  2  0  0  0  0
 28 33  1  0  0  0  0
 29 28  1  0  0  0  0
 29 34  1  0  0  0  0
 30 29  2  0  0  0  0
 31 26  2  0  0  0  0
 31 30  1  0  0  0  0
 35 31  1  0  0  0  0
 36 45  1  1  0  0  0
 36 26  1  0  0  0  0
 37 43  1  0  0  0  0
 37 36  1  0  0  0  0
 38 40  1  0  0  0  0
 38 37  1  0  0  0  0
 39 38  2  0  0  0  0
 40 41  1  0  0  0  0
 41 42  2  0  0  0  0
 41 36  1  0  0  0  0
 44 40  1  0  0  0  0
 45 46  1  0  0  0  0
 45 48  1  0  0  0  0
 47 45  1  0  0  0  0
M  END
>  <MODEL>
2

>  <REMARK>
 VINA RESULT:    -8.759      2.712      9.038
 INTER + INTRA:         -10.863
 INTER:                 -10.365
 INTRA:                  -0.498
 UNBOUND:                -0.312
  Name = 
  4 active torsions:
  status: ('A' for Active; 'I' for Inactive)
    1  A    between atoms: C_1  and  C_2
    2  A    between atoms: C_2  and  C_3
    3  A    between atoms: C_7  and  N_8
    4  A    between atoms: C_9  and  C_11
                            x       y       z     vdW  Elec       q    Type
                         _______ _______ _______ _____ _____    ______ ____

>  <TORSDO>
F 4

$$$$
=
 OpenBabel07192307433D

 48 51  0  0  1  0  0  0  0  0999 V2000
    2.1370    7.6830   19.1450 N   0  0  0  0  0  0  0  0  0  0  0  0
    1.5360    7.6180   20.3880 C   0  0  0  0  0  0  0  0  0  0  0  0
    1.4940    6.6560   21.1450 O   0  0  0  0  0  0  0  0  0  0  0  0
    2.0520    8.5920   18.6940 H   0  0  0  0  0  0  0  0  0  0  0  0
    0.8900    8.9020   20.7830 C   0  0  0  0  0  0  0  0  0  0  0  0
   -0.0130    8.9370   21.8300 C   0  0  0  0  0  0  0  0  0  0  0  0
   -0.6170   10.0850   22.2060 N   0  0  0  0  0  0  0  0  0  0  0  0
   -0.2630   11.1800   21.4790 C   0  0  0  0  0  0  0  0  0  0  0  0
    0.6580   11.1780   20.4220 C   0  0  0  0  0  0  0  0  0  0  0  0
    0.9800   12.3070   19.7110 N   0  0  0  0  0  0  0  0  0  0  0  0
    0.7490   13.6670   20.1850 C   0  0  0  0  0  0  0  0  0  0  0  0
    1.7810   14.5050   19.4280 C   0  0  0  0  0  0  0  0  0  0  0  0
    2.0310   13.7020   18.1610 C   0  0  0  0  0  0  0  0  0  0  0  0
    1.9890   12.2620   18.6620 C   0  0  0  0  0  0  0  0  0  0  0  0
    1.2400   10.0100   20.0620 N   0  0  0  0  0  0  0  0  0  0  0  0
   -0.2790    8.0480   22.3920 H   0  0  0  0  0  0  0  0  0  0  0  0
   -0.7720   12.0910   21.7790 H   0  0  0  0  0  0  0  0  0  0  0  0
    0.8990   13.7770   21.2650 H   0  0  0  0  0  0  0  0  0  0  0  0
   -0.2680   13.9810   19.9290 H   0  0  0  0  0  0  0  0  0  0  0  0
    2.7060   14.5750   20.0120 H   0  0  0  0  0  0  0  0  0  0  0  0
    1.4290   15.5200   19.2270 H   0  0  0  0  0  0  0  0  0  0  0  0
    1.2230   13.8770   17.4410 H   0  0  0  0  0  0  0  0  0  0  0  0
    2.9820   13.9520   17.6790 H   0  0  0  0  0  0  0  0  0  0  0  0
    2.9650   11.9750   19.0740 H   0  0  0  0  0  0  0  0  0  0  0  0
    1.7220   11.5740   17.8520 H   0  0  0  0  0  0  0  0  0  0  0  0
    4.7900    5.7990   17.2520 C   0  0  0  0  0  0  0  0  0  0  0  0
    4.1130    4.5780   17.1050 C   0  0  0  0  0  0  0  0  0  0  0  0
    2.8270    4.4050   17.6210 C   0  0  0  0  0  0  0  0  0  0  0  0
    2.1940    5.4490   18.2930 C   0  0  0  0  0  0  0  0  0  0  0  0
    2.8380    6.6760   18.4590 C   0  0  0  0  0  0  0  0  0  0  0  0
    4.1270    6.8390   17.9430 C   0  0  0  0  0  0  0  0  0  0  0  0
    4.5650    3.7360   16.5870 H   0  0  0  0  0  0  0  0  0  0  0  0
    2.3170    3.4530   17.4940 H   0  0  0  0  0  0  0  0  0  0  0  0
    1.1920    5.2890   18.6810 H   0  0  0  0  0  0  0  0  0  0  0  0
    4.6410    7.7870   18.0720 H   0  0  0  0  0  0  0  0  0  0  0  0
    6.1990    6.0250   16.7090 C   0  0  2  0  0  0  0  0  0  0  0  0
    6.2010    5.9820   15.2580 N   0  0  0  0  0  0  0  0  0  0  0  0
    6.9900    4.9750   14.7610 C   0  0  0  0  0  0  0  0  0  0  0  0
    7.1160    4.7060   13.5800 O   0  0  0  0  0  0  0  0  0  0  0  0
    7.5810    4.3360   15.7950 N   0  0  0  0  0  0  0  0  0  0  0  0
    7.1470    4.8330   16.9880 C   0  0  0  0  0  0  0  0  0  0  0  0
    7.4840    4.4050   18.0830 O   0  0  0  0  0  0  0  0  0  0  0  0
    5.5810    6.5070   14.6560 H   0  0  0  0  0  0  0  0  0  0  0  0
    8.1690    3.5270   15.6940 H   0  0  0  0  0  0  0  0  0  0  0  0
    6.9120    7.3010   17.1730 C   0  0  0  0  0  0  0  0  0  0  0  0
    6.5460    7.6300   18.1530 H   0  0  0  0  0  0  0  0  0  0  0  0
    6.7450    8.1300   16.4740 H   0  0  0  0  0  0  0  0  0  0  0  0
    7.9960    7.1530   17.2390 H   0  0  0  0  0  0  0  0  0  0  0  0
  1  2  1  0  0  0  0
  2  5  1  0  0  0  0
  2  3  2  0  0  0  0
  4  1  1  0  0  0  0
  5  6  1  0  0  0  0
  6  7  2  0  0  0  0
  6 16  1  0  0  0  0
  8 17  1  0  0  0  0
  8  7  1  0  0  0  0
  9  8  2  0  0  0  0
 10 11  1  0  0  0  0
 10  9  1  0  0  0  0
 11 18  1  0  0  0  0
 12 20  1  0  0  0  0
 12 11  1  0  0  0  0
 13 14  1  0  0  0  0
 13 12  1  0  0  0  0
 14 24  1  0  0  0  0
 14 10  1  0  0  0  0
 15  9  1  0  0  0  0
 15  5  2  0  0  0  0
 19 11  1  0  0  0  0
 21 12  1  0  0  0  0
 22 13  1  0  0  0  0
 23 13  1  0  0  0  0
 25 14  1  0  0  0  0
 26 31  1  0  0  0  0
 27 26  2  0  0  0  0
 27 28  1  0  0  0  0
 28 29  2  0  0  0  0
 29 30  1  0  0  0  0
 29 34  1  0  0  0  0
 30  1  1  0  0  0  0
 31 35  1  0  0  0  0
 31 30  2  0  0  0  0
 32 27  1  0  0  0  0
 33 28  1  0  0  0  0
 36 41  1  0  0  0  0
 36 45  1  1  0  0  0
 36 26  1  0  0  0  0
 37 36  1  0  0  0  0
 38 37  1  0  0  0  0
 38 40  1  0  0  0  0
 39 38  2  0  0  0  0
 40 41  1  0  0  0  0
 41 42  2  0  0  0  0
 43 37  1  0  0  0  0
 44 40  1  0  0  0  0
 45 48  1  0  0  0  0
 45 46  1  0  0  0  0
 47 45  1  0  0  0  0
M  END
>  <MODEL>
3

>  <REMARK>
 VINA RESULT:    -8.738      1.233      1.408
 INTER + INTRA:         -10.837
 INTER:                 -10.317
 INTRA:                  -0.520
 UNBOUND:                -0.312
  Name = 
  4 active torsions:
  status: ('A' for Active; 'I' for Inactive)
    1  A    between atoms: C_1  and  C_2
    2  A    between atoms: C_2  and  C_3
    3  A    between atoms: C_7  and  N_8
    4  A    between atoms: C_9  and  C_11
                            x       y       z     vdW  Elec       q    Type
                         _______ _______ _______ _____ _____    ______ ____

>  <TORSDO>
F 4

$$$$
=
 OpenBabel07192307433D

 48 51  0  0  1  0  0  0  0  0999 V2000
    1.8290    7.6260   18.6780 N   0  0  0  0  0  0  0  0  0  0  0  0
    1.9090    8.9690   18.3580 C   0  0  0  0  0  0  0  0  0  0  0  0
    2.7930    9.5310   17.7250 O   0  0  0  0  0  0  0  0  0  0  0  0
    0.9960    7.3780   19.2090 H   0  0  0  0  0  0  0  0  0  0  0  0
    0.7510    9.7530   18.8740 C   0  0  0  0  0  0  0  0  0  0  0  0
    0.8290   10.3900   20.1000 C   0  0  0  0  0  0  0  0  0  0  0  0
   -0.2060   11.1020   20.5940 N   0  0  0  0  0  0  0  0  0  0  0  0
   -1.3080   11.1390   19.7950 C   0  0  0  0  0  0  0  0  0  0  0  0
   -1.4120   10.5150   18.5430 C   0  0  0  0  0  0  0  0  0  0  0  0
   -2.5450   10.5740   17.7730 N   0  0  0  0  0  0  0  0  0  0  0  0
   -3.5950   11.5730   17.9340 C   0  0  0  0  0  0  0  0  0  0  0  0
   -4.2580   11.6430   16.5570 C   0  0  0  0  0  0  0  0  0  0  0  0
   -3.9920   10.2680   15.9640 C   0  0  0  0  0  0  0  0  0  0  0  0
   -2.5800    9.9590   16.4520 C   0  0  0  0  0  0  0  0  0  0  0  0
   -0.3600    9.8000   18.0780 N   0  0  0  0  0  0  0  0  0  0  0  0
    1.7190   10.3430   20.7180 H   0  0  0  0  0  0  0  0  0  0  0  0
   -2.1380   11.6980   20.2140 H   0  0  0  0  0  0  0  0  0  0  0  0
   -3.2090   12.5600   18.2130 H   0  0  0  0  0  0  0  0  0  0  0  0
   -4.3110   11.2390   18.6920 H   0  0  0  0  0  0  0  0  0  0  0  0
   -3.7690   12.4120   15.9470 H   0  0  0  0  0  0  0  0  0  0  0  0
   -5.3220   11.8820   16.6180 H   0  0  0  0  0  0  0  0  0  0  0  0
   -4.7010    9.5400   16.3730 H   0  0  0  0  0  0  0  0  0  0  0  0
   -4.0710   10.2520   14.8730 H   0  0  0  0  0  0  0  0  0  0  0  0
   -1.8380   10.4240   15.7900 H   0  0  0  0  0  0  0  0  0  0  0  0
   -2.4060    8.8780   16.4890 H   0  0  0  0  0  0  0  0  0  0  0  0
    4.8580    5.7410   17.4770 C   0  0  0  0  0  0  0  0  0  0  0  0
    4.4190    4.4390   17.7630 C   0  0  0  0  0  0  0  0  0  0  0  0
    3.1640    4.2150   18.3310 C   0  0  0  0  0  0  0  0  0  0  0  0
    2.3250    5.2870   18.6260 C   0  0  0  0  0  0  0  0  0  0  0  0
    2.7290    6.5950   18.3570 C   0  0  0  0  0  0  0  0  0  0  0  0
    3.9900    6.8120   17.7910 C   0  0  0  0  0  0  0  0  0  0  0  0
    5.0370    3.5710   17.5490 H   0  0  0  0  0  0  0  0  0  0  0  0
    2.8400    3.1980   18.5430 H   0  0  0  0  0  0  0  0  0  0  0  0
    1.3520    5.0840   19.0650 H   0  0  0  0  0  0  0  0  0  0  0  0
    4.3180    7.8250   17.5840 H   0  0  0  0  0  0  0  0  0  0  0  0
    6.2250    6.0280   16.8620 C   0  0  2  0  0  0  0  0  0  0  0  0
    6.1560    5.9770   15.4130 N   0  0  0  0  0  0  0  0  0  0  0  0
    6.9640    5.0040   14.8800 C   0  0  0  0  0  0  0  0  0  0  0  0
    7.0430    4.7340   13.6950 O   0  0  0  0  0  0  0  0  0  0  0  0
    7.6360    4.3990   15.8850 N   0  0  0  0  0  0  0  0  0  0  0  0
    7.2410    4.8820   17.0960 C   0  0  0  0  0  0  0  0  0  0  0  0
    7.6520    4.4770   18.1740 O   0  0  0  0  0  0  0  0  0  0  0  0
    5.4830    6.4700   14.8410 H   0  0  0  0  0  0  0  0  0  0  0  0
    8.2550    3.6180   15.7560 H   0  0  0  0  0  0  0  0  0  0  0  0
    6.9020    7.3380   17.2840 C   0  0  0  0  0  0  0  0  0  0  0  0
    6.4620    7.7370   18.2060 H   0  0  0  0  0  0  0  0  0  0  0  0
    6.7900    8.1130   16.5160 H   0  0  0  0  0  0  0  0  0  0  0  0
    7.9770    7.2010   17.4450 H   0  0  0  0  0  0  0  0  0  0  0  0
  1  4  1  0  0  0  0
  2  1  1  0  0  0  0
  2  5  1  0  0  0  0
  3  2  2  0  0  0  0
  5  6  1  0  0  0  0
  6  7  2  0  0  0  0
  6 16  1  0  0  0  0
  8 17  1  0  0  0  0
  8  7  1  0  0  0  0
  9  8  2  0  0  0  0
 10 11  1  0  0  0  0
 10  9  1  0  0  0  0
 11 18  1  0  0  0  0
 11 19  1  0  0  0  0
 12 21  1  0  0  0  0
 12 11  1  0  0  0  0
 13 22  1  0  0  0  0
 13 14  1  0  0  0  0
 13 12  1  0  0  0  0
 14 25  1  0  0  0  0
 14 10  1  0  0  0  0
 15  9  1  0  0  0  0
 15  5  2  0  0  0  0
 20 12  1  0  0  0  0
 23 13  1  0  0  0  0
 24 14  1  0  0  0  0
 26 27  2  0  0  0  0
 26 31  1  0  0  0  0
 27 28  1  0  0  0  0
 28 33  1  0  0  0  0
 28 29  2  0  0  0  0
 29 34  1  0  0  0  0
 30 29  1  0  0  0  0
 30  1  1  0  0  0  0
 31 30  2  0  0  0  0
 32 27  1  0  0  0  0
 35 31  1  0  0  0  0
 36 41  1  0  0  0  0
 36 45  1  1  0  0  0
 36 26  1  0  0  0  0
 37 36  1  0  0  0  0
 38 37  1  0  0  0  0
 38 40  1  0  0  0  0
 39 38  2  0  0  0  0
 40 41  1  0  0  0  0
 41 42  2  0  0  0  0
 43 37  1  0  0  0  0
 44 40  1  0  0  0  0
 45 48  1  0  0  0  0
 45 46  1  0  0  0  0
 47 45  1  0  0  0  0
M  END
>  <MODEL>
4

>  <REMARK>
 VINA RESULT:    -8.711      2.429      2.812
 INTER + INTRA:         -10.805
 INTER:                 -10.628
 INTRA:                  -0.177
 UNBOUND:                -0.312
  Name = 
  4 active torsions:
  status: ('A' for Active; 'I' for Inactive)
    1  A    between atoms: C_1  and  C_2
    2  A    between atoms: C_2  and  C_3
    3  A    between atoms: C_7  and  N_8
    4  A    between atoms: C_9  and  C_11
                            x       y       z     vdW  Elec       q    Type
                         _______ _______ _______ _____ _____    ______ ____

>  <TORSDO>
F 4

$$$$
=
 OpenBabel07192307433D

 48 51  0  0  1  0  0  0  0  0999 V2000
    1.6250    8.2640   19.5270 N   0  0  0  0  0  0  0  0  0  0  0  0
    2.3270    8.4320   18.3480 C   0  0  0  0  0  0  0  0  0  0  0  0
    2.3920    9.4420   17.6590 O   0  0  0  0  0  0  0  0  0  0  0  0
    1.7210    7.3360   19.9340 H   0  0  0  0  0  0  0  0  0  0  0  0
    3.0620    7.2030   17.9350 C   0  0  0  0  0  0  0  0  0  0  0  0
    4.3010    7.3000   17.3280 C   0  0  0  0  0  0  0  0  0  0  0  0
    4.9860    6.2040   16.9390 N   0  0  0  0  0  0  0  0  0  0  0  0
    4.3640    5.0210   17.1940 C   0  0  0  0  0  0  0  0  0  0  0  0
    3.1150    4.8900   17.8200 C   0  0  0  0  0  0  0  0  0  0  0  0
    2.5220    3.6750   18.0530 N   0  0  0  0  0  0  0  0  0  0  0  0
    3.2360    2.4030   18.0670 C   0  0  0  0  0  0  0  0  0  0  0  0
    2.3700    1.5000   18.9470 C   0  0  0  0  0  0  0  0  0  0  0  0
    0.9760    2.0920   18.8030 C   0  0  0  0  0  0  0  0  0  0  0  0
    1.2520    3.5920   18.7620 C   0  0  0  0  0  0  0  0  0  0  0  0
    2.4480    6.0080   18.1900 N   0  0  0  0  0  0  0  0  0  0  0  0
    4.7740    8.2570   17.1330 H   0  0  0  0  0  0  0  0  0  0  0  0
    4.9170    4.1490   16.8580 H   0  0  0  0  0  0  0  0  0  0  0  0
    4.2440    2.4810   18.4890 H   0  0  0  0  0  0  0  0  0  0  0  0
    3.3020    2.0050   17.0490 H   0  0  0  0  0  0  0  0  0  0  0  0
    2.6980    1.5710   19.9910 H   0  0  0  0  0  0  0  0  0  0  0  0
    2.4210    0.4510   18.6460 H   0  0  0  0  0  0  0  0  0  0  0  0
    0.5260    1.7630   17.8600 H   0  0  0  0  0  0  0  0  0  0  0  0
    0.3070    1.8100   19.6220 H   0  0  0  0  0  0  0  0  0  0  0  0
    1.3500    3.9890   19.7800 H   0  0  0  0  0  0  0  0  0  0  0  0
    0.4460    4.1230   18.2420 H   0  0  0  0  0  0  0  0  0  0  0  0
   -0.7790   11.0530   20.3110 C   0  0  0  0  0  0  0  0  0  0  0  0
   -0.6960   11.0110   21.7110 C   0  0  0  0  0  0  0  0  0  0  0  0
    0.1310   10.0870   22.3530 C   0  0  0  0  0  0  0  0  0  0  0  0
    0.8900    9.1870   21.6070 C   0  0  0  0  0  0  0  0  0  0  0  0
    0.8310    9.2000   20.2130 C   0  0  0  0  0  0  0  0  0  0  0  0
   -0.0030   10.1260   19.5780 C   0  0  0  0  0  0  0  0  0  0  0  0
   -1.2660   11.6940   22.3360 H   0  0  0  0  0  0  0  0  0  0  0  0
    0.1850   10.0720   23.4390 H   0  0  0  0  0  0  0  0  0  0  0  0
    1.5270    8.4810   22.1310 H   0  0  0  0  0  0  0  0  0  0  0  0
   -0.0630   10.1390   18.4950 H   0  0  0  0  0  0  0  0  0  0  0  0
   -1.6760   12.0430   19.5730 C   0  0  2  0  0  0  0  0  0  0  0  0
   -2.7850   11.3540   18.9370 N   0  0  0  0  0  0  0  0  0  0  0  0
   -2.7850   11.5030   17.5730 C   0  0  0  0  0  0  0  0  0  0  0  0
   -3.5830   10.9820   16.8150 O   0  0  0  0  0  0  0  0  0  0  0  0
   -1.7540   12.3050   17.2220 N   0  0  0  0  0  0  0  0  0  0  0  0
   -1.0040   12.6370   18.3110 C   0  0  0  0  0  0  0  0  0  0  0  0
    0.0150   13.3120   18.2720 O   0  0  0  0  0  0  0  0  0  0  0  0
   -3.4060   10.7000   19.3930 H   0  0  0  0  0  0  0  0  0  0  0  0
   -1.5120   12.5250   16.2730 H   0  0  0  0  0  0  0  0  0  0  0  0
   -2.2230   13.2140   20.3990 C   0  0  0  0  0  0  0  0  0  0  0  0
   -2.3790   14.1040   19.7780 H   0  0  0  0  0  0  0  0  0  0  0  0
   -1.5270   13.5000   21.1980 H   0  0  0  0  0  0  0  0  0  0  0  0
   -3.1730   12.9560   20.8810 H   0  0  0  0  0  0  0  0  0  0  0  0
  1  4  1  0  0  0  0
  1 30  1  0  0  0  0
  2  1  1  0  0  0  0
  3  2  2  0  0  0  0
  5 15  1  0  0  0  0
  5  2  1  0  0  0  0
  6  5  2  0  0  0  0
  7  8  2  0  0  0  0
  7  6  1  0  0  0  0
  8  9  1  0  0  0  0
  9 10  1  0  0  0  0
  9 15  2  0  0  0  0
 10 11  1  0  0  0  0
 10 14  1  0  0  0  0
 11 18  1  0  0  0  0
 11 12  1  0  0  0  0
 12 20  1  0  0  0  0
 13 12  1  0  0  0  0
 13 23  1  0  0  0  0
 14 13  1  0  0  0  0
 14 24  1  0  0  0  0
 16  6  1  0  0  0  0
 17  8  1  0  0  0  0
 19 11  1  0  0  0  0
 21 12  1  0  0  0  0
 22 13  1  0  0  0  0
 25 14  1  0  0  0  0
 26 27  1  0  0  0  0
 27 32  1  0  0  0  0
 27 28  2  0  0  0  0
 28 33  1  0  0  0  0
 29 34  1  0  0  0  0
 29 28  1  0  0  0  0
 30 29  2  0  0  0  0
 31 30  1  0  0  0  0
 31 26  2  0  0  0  0
 35 31  1  0  0  0  0
 36 26  1  0  0  0  0
 36 45  1  1  0  0  0
 37 43  1  0  0  0  0
 37 36  1  0  0  0  0
 38 37  1  0  0  0  0
 39 38  2  0  0  0  0
 40 38  1  0  0  0  0
 40 41  1  0  0  0  0
 41 36  1  0  0  0  0
 42 41  2  0  0  0  0
 44 40  1  0  0  0  0
 45 48  1  0  0  0  0
 45 47  1  0  0  0  0
 46 45  1  0  0  0  0
M  END
>  <MODEL>
5

>  <REMARK>
 VINA RESULT:    -8.621      2.829      9.155
 INTER + INTRA:         -10.696
 INTER:                 -10.166
 INTRA:                  -0.530
 UNBOUND:                -0.312
  Name = 
  4 active torsions:
  status: ('A' for Active; 'I' for Inactive)
    1  A    between atoms: C_1  and  C_2
    2  A    between atoms: C_2  and  C_3
    3  A    between atoms: C_7  and  N_8
    4  A    between atoms: C_9  and  C_11
                            x       y       z     vdW  Elec       q    Type
                         _______ _______ _______ _____ _____    ______ ____

>  <TORSDO>
F 4

$$$$
=
 OpenBabel07192307433D

 48 51  0  0  1  0  0  0  0  0999 V2000
    1.9100    7.9800   18.5860 N   0  0  0  0  0  0  0  0  0  0  0  0
    1.4310    8.5650   19.7430 C   0  0  0  0  0  0  0  0  0  0  0  0
    1.7260    8.2800   20.8970 O   0  0  0  0  0  0  0  0  0  0  0  0
    1.5290    8.3840   17.7320 H   0  0  0  0  0  0  0  0  0  0  0  0
    0.4540    9.6590   19.4740 C   0  0  0  0  0  0  0  0  0  0  0  0
    0.1450   10.0150   18.1740 C   0  0  0  0  0  0  0  0  0  0  0  0
   -0.7320   11.0050   17.9020 N   0  0  0  0  0  0  0  0  0  0  0  0
   -1.2730   11.6060   18.9960 C   0  0  0  0  0  0  0  0  0  0  0  0
   -0.9900   11.2580   20.3250 C   0  0  0  0  0  0  0  0  0  0  0  0
   -1.5560   11.8960   21.4000 N   0  0  0  0  0  0  0  0  0  0  0  0
   -2.7730   12.6960   21.3300 C   0  0  0  0  0  0  0  0  0  0  0  0
   -3.3310   12.6490   22.7530 C   0  0  0  0  0  0  0  0  0  0  0  0
   -2.0980   12.4140   23.6120 C   0  0  0  0  0  0  0  0  0  0  0  0
   -1.2730   11.4550   22.7590 C   0  0  0  0  0  0  0  0  0  0  0  0
   -0.0990   10.2680   20.5670 N   0  0  0  0  0  0  0  0  0  0  0  0
    0.5930    9.5210   17.3190 H   0  0  0  0  0  0  0  0  0  0  0  0
   -1.9600   12.4130   18.7620 H   0  0  0  0  0  0  0  0  0  0  0  0
   -3.5110   12.2940   20.6260 H   0  0  0  0  0  0  0  0  0  0  0  0
   -2.5250   13.7230   21.0440 H   0  0  0  0  0  0  0  0  0  0  0  0
   -4.0220   11.8040   22.8560 H   0  0  0  0  0  0  0  0  0  0  0  0
   -3.8690   13.5620   23.0210 H   0  0  0  0  0  0  0  0  0  0  0  0
   -1.5560   13.3560   23.7540 H   0  0  0  0  0  0  0  0  0  0  0  0
   -2.3370   12.0010   24.5970 H   0  0  0  0  0  0  0  0  0  0  0  0
   -1.6140   10.4230   22.9100 H   0  0  0  0  0  0  0  0  0  0  0  0
   -0.2090   11.5250   23.0100 H   0  0  0  0  0  0  0  0  0  0  0  0
    4.9770    5.9830   17.7060 C   0  0  0  0  0  0  0  0  0  0  0  0
    4.5910    4.7530   18.2630 C   0  0  0  0  0  0  0  0  0  0  0  0
    3.3570    4.6110   18.9010 C   0  0  0  0  0  0  0  0  0  0  0  0
    2.4870    5.6960   18.9950 C   0  0  0  0  0  0  0  0  0  0  0  0
    2.8390    6.9330   18.4550 C   0  0  0  0  0  0  0  0  0  0  0  0
    4.0780    7.0680   17.8210 C   0  0  0  0  0  0  0  0  0  0  0  0
    5.2350    3.8790   18.2120 H   0  0  0  0  0  0  0  0  0  0  0  0
    3.0740    3.6500   19.3230 H   0  0  0  0  0  0  0  0  0  0  0  0
    1.5320    5.5570   19.4950 H   0  0  0  0  0  0  0  0  0  0  0  0
    4.3650    8.0270   17.4030 H   0  0  0  0  0  0  0  0  0  0  0  0
    6.3190    6.1800   17.0070 C   0  0  2  0  0  0  0  0  0  0  0  0
    6.1720    6.0460   15.5680 N   0  0  0  0  0  0  0  0  0  0  0  0
    6.9160    5.0130   15.0560 C   0  0  0  0  0  0  0  0  0  0  0  0
    6.9220    4.6710   13.8870 O   0  0  0  0  0  0  0  0  0  0  0  0
    7.6180    4.4420   16.0600 N   0  0  0  0  0  0  0  0  0  0  0  0
    7.3040    5.0110   17.2590 C   0  0  0  0  0  0  0  0  0  0  0  0
    7.7560    4.6550   18.3370 O   0  0  0  0  0  0  0  0  0  0  0  0
    5.4880    6.5300   15.0020 H   0  0  0  0  0  0  0  0  0  0  0  0
    8.2010    3.6310   15.9480 H   0  0  0  0  0  0  0  0  0  0  0  0
    7.0630    7.4850   17.3140 C   0  0  0  0  0  0  0  0  0  0  0  0
    7.5810    7.4330   18.2790 H   0  0  0  0  0  0  0  0  0  0  0  0
    6.3730    8.3360   17.3660 H   0  0  0  0  0  0  0  0  0  0  0  0
    7.8000    7.7190   16.5370 H   0  0  0  0  0  0  0  0  0  0  0  0
  1  2  1  0  0  0  0
  2  3  2  0  0  0  0
  4  1  1  0  0  0  0
  5  2  1  0  0  0  0
  5 15  1  0  0  0  0
  6  5  2  0  0  0  0
  7  6  1  0  0  0  0
  7  8  2  0  0  0  0
  8  9  1  0  0  0  0
  9 15  2  0  0  0  0
  9 10  1  0  0  0  0
 10 14  1  0  0  0  0
 11 10  1  0  0  0  0
 11 12  1  0  0  0  0
 12 20  1  0  0  0  0
 12 21  1  0  0  0  0
 12 13  1  0  0  0  0
 13 22  1  0  0  0  0
 13 23  1  0  0  0  0
 14 24  1  0  0  0  0
 14 25  1  0  0  0  0
 14 13  1  0  0  0  0
 16  6  1  0  0  0  0
 17  8  1  0  0  0  0
 18 11  1  0  0  0  0
 19 11  1  0  0  0  0
 26 31  2  0  0  0  0
 26 27  1  0  0  0  0
 27 28  2  0  0  0  0
 28 29  1  0  0  0  0
 28 33  1  0  0  0  0
 29 34  1  0  0  0  0
 30  1  1  0  0  0  0
 30 29  2  0  0  0  0
 31 30  1  0  0  0  0
 32 27  1  0  0  0  0
 35 31  1  0  0  0  0
 36 41  1  0  0  0  0
 36 45  1  1  0  0  0
 36 26  1  0  0  0  0
 37 36  1  0  0  0  0
 38 37  1  0  0  0  0
 38 40  1  0  0  0  0
 39 38  2  0  0  0  0
 40 41  1  0  0  0  0
 41 42  2  0  0  0  0
 43 37  1  0  0  0  0
 44 40  1  0  0  0  0
 45 47  1  0  0  0  0
 45 46  1  0  0  0  0
 48 45  1  0  0  0  0
M  END
>  <MODEL>
6

>  <REMARK>
 VINA RESULT:    -8.548      1.545      2.176
 INTER + INTRA:         -10.609
 INTER:                 -10.218
 INTRA:                  -0.391
 UNBOUND:                -0.312
  Name = 
  4 active torsions:
  status: ('A' for Active; 'I' for Inactive)
    1  A    between atoms: C_1  and  C_2
    2  A    between atoms: C_2  and  C_3
    3  A    between atoms: C_7  and  N_8
    4  A    between atoms: C_9  and  C_11
                            x       y       z     vdW  Elec       q    Type
                         _______ _______ _______ _____ _____    ______ ____

>  <TORSDO>
F 4

$$$$
=
 OpenBabel07192307433D

 48 51  0  0  1  0  0  0  0  0999 V2000
    1.9640    6.8250   19.4420 N   0  0  0  0  0  0  0  0  0  0  0  0
    1.8610    8.1510   19.0660 C   0  0  0  0  0  0  0  0  0  0  0  0
    2.2200    8.6550   18.0090 O   0  0  0  0  0  0  0  0  0  0  0  0
    1.5920    6.6290   20.3690 H   0  0  0  0  0  0  0  0  0  0  0  0
    1.2300    9.0000   20.1170 C   0  0  0  0  0  0  0  0  0  0  0  0
    1.0260    8.4990   21.3890 C   0  0  0  0  0  0  0  0  0  0  0  0
    0.4510    9.2440   22.3590 N   0  0  0  0  0  0  0  0  0  0  0  0
    0.1010   10.5030   21.9800 C   0  0  0  0  0  0  0  0  0  0  0  0
    0.3080   11.0430   20.7020 C   0  0  0  0  0  0  0  0  0  0  0  0
   -0.0670   12.3180   20.3610 N   0  0  0  0  0  0  0  0  0  0  0  0
   -0.3350   13.3780   21.3260 C   0  0  0  0  0  0  0  0  0  0  0  0
   -0.0820   14.6670   20.5420 C   0  0  0  0  0  0  0  0  0  0  0  0
   -0.3450   14.2640   19.0990 C   0  0  0  0  0  0  0  0  0  0  0  0
    0.2260   12.8500   19.0370 C   0  0  0  0  0  0  0  0  0  0  0  0
    0.8770   10.2690   19.7480 N   0  0  0  0  0  0  0  0  0  0  0  0
    1.3120    7.4900   21.6650 H   0  0  0  0  0  0  0  0  0  0  0  0
   -0.3770   11.0820   22.7630 H   0  0  0  0  0  0  0  0  0  0  0  0
    0.3230   13.3390   22.2010 H   0  0  0  0  0  0  0  0  0  0  0  0
   -1.3770   13.3240   21.6570 H   0  0  0  0  0  0  0  0  0  0  0  0
    0.9630   14.9750   20.6580 H   0  0  0  0  0  0  0  0  0  0  0  0
   -0.7180   15.4910   20.8770 H   0  0  0  0  0  0  0  0  0  0  0  0
   -1.4230   14.2460   18.9060 H   0  0  0  0  0  0  0  0  0  0  0  0
    0.1250   14.9380   18.3760 H   0  0  0  0  0  0  0  0  0  0  0  0
    1.3090   12.8850   18.8650 H   0  0  0  0  0  0  0  0  0  0  0  0
   -0.2500   12.2720   18.2380 H   0  0  0  0  0  0  0  0  0  0  0  0
    4.3000    4.5960   17.5050 C   0  0  0  0  0  0  0  0  0  0  0  0
    3.4170    3.5320   17.2610 C   0  0  0  0  0  0  0  0  0  0  0  0
    2.1010    3.5710   17.7270 C   0  0  0  0  0  0  0  0  0  0  0  0
    1.6440    4.6730   18.4480 C   0  0  0  0  0  0  0  0  0  0  0  0
    2.4950    5.7470   18.7110 C   0  0  0  0  0  0  0  0  0  0  0  0
    3.8120    5.6980   18.2440 C   0  0  0  0  0  0  0  0  0  0  0  0
    3.7260    2.6530   16.7010 H   0  0  0  0  0  0  0  0  0  0  0  0
    1.4300    2.7390   17.5250 H   0  0  0  0  0  0  0  0  0  0  0  0
    0.6150    4.6790   18.7970 H   0  0  0  0  0  0  0  0  0  0  0  0
    4.4850    6.5250   18.4490 H   0  0  0  0  0  0  0  0  0  0  0  0
    5.7460    4.5880   17.0180 C   0  0  2  0  0  0  0  0  0  0  0  0
    6.6540    4.3010   18.1150 N   0  0  0  0  0  0  0  0  0  0  0  0
    7.5370    5.3250   18.3490 C   0  0  0  0  0  0  0  0  0  0  0  0
    8.3630    5.3430   19.2440 O   0  0  0  0  0  0  0  0  0  0  0  0
    7.3230    6.3010   17.4380 N   0  0  0  0  0  0  0  0  0  0  0  0
    6.2600    5.9990   16.6410 C   0  0  0  0  0  0  0  0  0  0  0  0
    5.8190    6.7280   15.7640 O   0  0  0  0  0  0  0  0  0  0  0  0
    6.5700    3.5240   18.7560 H   0  0  0  0  0  0  0  0  0  0  0  0
    7.8110    7.1790   17.4310 H   0  0  0  0  0  0  0  0  0  0  0  0
    6.0650    3.6510   15.8470 C   0  0  0  0  0  0  0  0  0  0  0  0
    5.7850    4.1000   14.8870 H   0  0  0  0  0  0  0  0  0  0  0  0
    5.5160    2.7050   15.9290 H   0  0  0  0  0  0  0  0  0  0  0  0
    7.1310    3.3990   15.8140 H   0  0  0  0  0  0  0  0  0  0  0  0
  1  4  1  0  0  0  0
  2  1  1  0  0  0  0
  2  5  1  0  0  0  0
  3  2  2  0  0  0  0
  5  6  1  0  0  0  0
  6 16  1  0  0  0  0
  6  7  2  0  0  0  0
  8  7  1  0  0  0  0
  8 17  1  0  0  0  0
  9  8  2  0  0  0  0
 10  9  1  0  0  0  0
 10 11  1  0  0  0  0
 11 19  1  0  0  0  0
 11 18  1  0  0  0  0
 12 20  1  0  0  0  0
 12 21  1  0  0  0  0
 12 11  1  0  0  0  0
 13 12  1  0  0  0  0
 14 13  1  0  0  0  0
 14 10  1  0  0  0  0
 15  5  2  0  0  0  0
 15  9  1  0  0  0  0
 22 13  1  0  0  0  0
 23 13  1  0  0  0  0
 24 14  1  0  0  0  0
 25 14  1  0  0  0  0
 26 31  1  0  0  0  0
 27 26  2  0  0  0  0
 27 28  1  0  0  0  0
 28 29  2  0  0  0  0
 29 30  1  0  0  0  0
 29 34  1  0  0  0  0
 30  1  1  0  0  0  0
 31 35  1  0  0  0  0
 31 30  2  0  0  0  0
 32 27  1  0  0  0  0
 33 28  1  0  0  0  0
 36 45  1  6  0  0  0
 36 26  1  0  0  0  0
 36 37  1  0  0  0  0
 37 38  1  0  0  0  0
 37 43  1  0  0  0  0
 38 39  2  0  0  0  0
 40 38  1  0  0  0  0
 41 36  1  0  0  0  0
 41 40  1  0  0  0  0
 42 41  2  0  0  0  0
 44 40  1  0  0  0  0
 45 47  1  0  0  0  0
 46 45  1  0  0  0  0
 48 45  1  0  0  0  0
M  END
>  <MODEL>
7

>  <REMARK>
 VINA RESULT:    -8.385      1.249      1.989
 INTER + INTRA:         -10.412
 INTER:                  -9.803
 INTRA:                  -0.609
 UNBOUND:                -0.312
  Name = 
  4 active torsions:
  status: ('A' for Active; 'I' for Inactive)
    1  A    between atoms: C_1  and  C_2
    2  A    between atoms: C_2  and  C_3
    3  A    between atoms: C_7  and  N_8
    4  A    between atoms: C_9  and  C_11
                            x       y       z     vdW  Elec       q    Type
                         _______ _______ _______ _____ _____    ______ ____

>  <TORSDO>
F 4

$$$$
=
 OpenBabel07192307433D

 48 51  0  0  1  0  0  0  0  0999 V2000
    1.5850    8.6910   18.6920 N   0  0  0  0  0  0  0  0  0  0  0  0
    1.1420    9.1920   19.9010 C   0  0  0  0  0  0  0  0  0  0  0  0
    1.3670    8.7450   21.0190 O   0  0  0  0  0  0  0  0  0  0  0  0
    1.2790    9.2320   17.8850 H   0  0  0  0  0  0  0  0  0  0  0  0
    0.3030   10.4150   19.7460 C   0  0  0  0  0  0  0  0  0  0  0  0
    0.3090   11.1190   18.5550 C   0  0  0  0  0  0  0  0  0  0  0  0
   -0.4370   12.2330   18.3890 N   0  0  0  0  0  0  0  0  0  0  0  0
   -1.1780   12.5920   19.4720 C   0  0  0  0  0  0  0  0  0  0  0  0
   -1.2140   11.8910   20.6870 C   0  0  0  0  0  0  0  0  0  0  0  0
   -1.9730   12.2930   21.7570 N   0  0  0  0  0  0  0  0  0  0  0  0
   -3.1040   13.2090   21.6620 C   0  0  0  0  0  0  0  0  0  0  0  0
   -3.9650   12.8630   22.8770 C   0  0  0  0  0  0  0  0  0  0  0  0
   -2.9670   12.2900   23.8710 C   0  0  0  0  0  0  0  0  0  0  0  0
   -2.0210   11.4960   22.9750 C   0  0  0  0  0  0  0  0  0  0  0  0
   -0.4490   10.7830   20.8270 N   0  0  0  0  0  0  0  0  0  0  0  0
    0.9110   10.8120   17.7070 H   0  0  0  0  0  0  0  0  0  0  0  0
   -1.7550   13.4990   19.3310 H   0  0  0  0  0  0  0  0  0  0  0  0
   -3.6850   13.0780   20.7420 H   0  0  0  0  0  0  0  0  0  0  0  0
   -2.7490   14.2430   21.7190 H   0  0  0  0  0  0  0  0  0  0  0  0
   -4.7020   12.0980   22.6070 H   0  0  0  0  0  0  0  0  0  0  0  0
   -4.5050   13.7300   23.2670 H   0  0  0  0  0  0  0  0  0  0  0  0
   -2.4250   13.1030   24.3680 H   0  0  0  0  0  0  0  0  0  0  0  0
   -3.4380   11.6690   24.6390 H   0  0  0  0  0  0  0  0  0  0  0  0
   -2.4370   10.5010   22.7710 H   0  0  0  0  0  0  0  0  0  0  0  0
   -1.0370   11.3870   23.4450 H   0  0  0  0  0  0  0  0  0  0  0  0
    2.9410    5.1800   18.6610 C   0  0  0  0  0  0  0  0  0  0  0  0
    4.1020    5.4120   17.9070 C   0  0  0  0  0  0  0  0  0  0  0  0
    4.4070    6.6910   17.4370 C   0  0  0  0  0  0  0  0  0  0  0  0
    3.5570    7.7600   17.7090 C   0  0  0  0  0  0  0  0  0  0  0  0
    2.3930    7.5660   18.4540 C   0  0  0  0  0  0  0  0  0  0  0  0
    2.0930    6.2810   18.9190 C   0  0  0  0  0  0  0  0  0  0  0  0
    4.7970    4.6100   17.6710 H   0  0  0  0  0  0  0  0  0  0  0  0
    5.3130    6.8520   16.8560 H   0  0  0  0  0  0  0  0  0  0  0  0
    3.8190    8.7450   17.3330 H   0  0  0  0  0  0  0  0  0  0  0  0
    1.1870    6.1170   19.4930 H   0  0  0  0  0  0  0  0  0  0  0  0
    2.5700    3.7960   19.1880 C   0  0  2  0  0  0  0  0  0  0  0  0
    3.4570    3.4050   20.2700 N   0  0  0  0  0  0  0  0  0  0  0  0
    4.1720    2.2700   19.9810 C   0  0  0  0  0  0  0  0  0  0  0  0
    5.0130    1.7720   20.7070 O   0  0  0  0  0  0  0  0  0  0  0  0
    3.7950    1.8160   18.7650 N   0  0  0  0  0  0  0  0  0  0  0  0
    2.8990    2.6640   18.1840 C   0  0  0  0  0  0  0  0  0  0  0  0
    2.4310    2.5200   17.0640 O   0  0  0  0  0  0  0  0  0  0  0  0
    3.6710    3.9660   21.0830 H   0  0  0  0  0  0  0  0  0  0  0  0
    4.2100    1.0240   18.3070 H   0  0  0  0  0  0  0  0  0  0  0  0
    1.1170    3.6060   19.6390 C   0  0  0  0  0  0  0  0  0  0  0  0
    0.7160    2.6420   19.3020 H   0  0  0  0  0  0  0  0  0  0  0  0
    0.4640    4.3860   19.2280 H   0  0  0  0  0  0  0  0  0  0  0  0
    1.0260    3.6560   20.7300 H   0  0  0  0  0  0  0  0  0  0  0  0
  1  2  1  0  0  0  0
  2  3  2  0  0  0  0
  4  1  1  0  0  0  0
  5  2  1  0  0  0  0
  5 15  1  0  0  0  0
  6  5  2  0  0  0  0
  7  6  1  0  0  0  0
  7  8  2  0  0  0  0
  8  9  1  0  0  0  0
  9 15  2  0  0  0  0
  9 10  1  0  0  0  0
 10 14  1  0  0  0  0
 11 19  1  0  0  0  0
 11 10  1  0  0  0  0
 11 12  1  0  0  0  0
 12 21  1  0  0  0  0
 12 13  1  0  0  0  0
 13 22  1  0  0  0  0
 13 23  1  0  0  0  0
 14 25  1  0  0  0  0
 14 13  1  0  0  0  0
 16  6  1  0  0  0  0
 17  8  1  0  0  0  0
 18 11  1  0  0  0  0
 20 12  1  0  0  0  0
 24 14  1  0  0  0  0
 26 31  1  0  0  0  0
 26 36  1  0  0  0  0
 27 26  2  0  0  0  0
 28 29  2  0  0  0  0
 28 27  1  0  0  0  0
 29 30  1  0  0  0  0
 30  1  1  0  0  0  0
 30 31  2  0  0  0  0
 31 35  1  0  0  0  0
 32 27  1  0  0  0  0
 33 28  1  0  0  0  0
 34 29  1  0  0  0  0
 36 45  1  1  0  0  0
 36 37  1  0  0  0  0
 37 43  1  0  0  0  0
 38 37  1  0  0  0  0
 38 39  2  0  0  0  0
 40 38  1  0  0  0  0
 41 40  1  0  0  0  0
 41 36  1  0  0  0  0
 42 41  2  0  0  0  0
 44 40  1  0  0  0  0
 45 48  1  0  0  0  0
 46 45  1  0  0  0  0
 47 45  1  0  0  0  0
M  END
>  <MODEL>
8

>  <REMARK>
 VINA RESULT:    -8.184      2.833      4.178
 INTER + INTRA:         -10.169
 INTER:                  -9.604
 INTRA:                  -0.565
 UNBOUND:                -0.312
  Name = 
  4 active torsions:
  status: ('A' for Active; 'I' for Inactive)
    1  A    between atoms: C_1  and  C_2
    2  A    between atoms: C_2  and  C_3
    3  A    between atoms: C_7  and  N_8
    4  A    between atoms: C_9  and  C_11
                            x       y       z     vdW  Elec       q    Type
                         _______ _______ _______ _____ _____    ______ ____

>  <TORSDO>
F 4

$$$$
=
 OpenBabel07192307433D

 48 51  0  0  1  0  0  0  0  0999 V2000
    1.8330    8.2440   18.6300 N   0  0  0  0  0  0  0  0  0  0  0  0
    1.4880    8.6780   19.8960 C   0  0  0  0  0  0  0  0  0  0  0  0
    1.8050    8.1760   20.9670 O   0  0  0  0  0  0  0  0  0  0  0  0
    1.4610    8.8230   17.8800 H   0  0  0  0  0  0  0  0  0  0  0  0
    0.6360    9.9010   19.8720 C   0  0  0  0  0  0  0  0  0  0  0  0
    1.0400   11.0470   20.5310 C   0  0  0  0  0  0  0  0  0  0  0  0
    0.2850   12.1670   20.5310 N   0  0  0  0  0  0  0  0  0  0  0  0
   -0.8820   12.0690   19.8380 C   0  0  0  0  0  0  0  0  0  0  0  0
   -1.3120   10.9260   19.1500 C   0  0  0  0  0  0  0  0  0  0  0  0
   -2.5010   10.8700   18.4670 N   0  0  0  0  0  0  0  0  0  0  0  0
   -3.2510   12.0410   18.0300 C   0  0  0  0  0  0  0  0  0  0  0  0
   -4.0740   11.5350   16.8440 C   0  0  0  0  0  0  0  0  0  0  0  0
   -4.2290   10.0490   17.1260 C   0  0  0  0  0  0  0  0  0  0  0  0
   -2.8730    9.6770   17.7180 C   0  0  0  0  0  0  0  0  0  0  0  0
   -0.5380    9.8150   19.1760 N   0  0  0  0  0  0  0  0  0  0  0  0
    1.9750   11.0980   21.0790 H   0  0  0  0  0  0  0  0  0  0  0  0
   -1.4870   12.9700   19.8640 H   0  0  0  0  0  0  0  0  0  0  0  0
   -2.6080   12.8690   17.7120 H   0  0  0  0  0  0  0  0  0  0  0  0
   -3.9060   12.3840   18.8380 H   0  0  0  0  0  0  0  0  0  0  0  0
   -3.5150   11.6810   15.9130 H   0  0  0  0  0  0  0  0  0  0  0  0
   -5.0320   12.0530   16.7490 H   0  0  0  0  0  0  0  0  0  0  0  0
   -5.0220    9.8880   17.8660 H   0  0  0  0  0  0  0  0  0  0  0  0
   -4.4690    9.4680   16.2300 H   0  0  0  0  0  0  0  0  0  0  0  0
   -2.1490    9.4820   16.9160 H   0  0  0  0  0  0  0  0  0  0  0  0
   -2.9540    8.7900   18.3550 H   0  0  0  0  0  0  0  0  0  0  0  0
    3.1830    4.7460   18.2930 C   0  0  0  0  0  0  0  0  0  0  0  0
    4.2910    5.0280   17.4780 C   0  0  0  0  0  0  0  0  0  0  0  0
    4.5640    6.3350   17.0680 C   0  0  0  0  0  0  0  0  0  0  0  0
    3.7340    7.3820   17.4620 C   0  0  0  0  0  0  0  0  0  0  0  0
    2.6230    7.1380   18.2700 C   0  0  0  0  0  0  0  0  0  0  0  0
    2.3550    5.8260   18.6740 C   0  0  0  0  0  0  0  0  0  0  0  0
    4.9680    4.2450   17.1470 H   0  0  0  0  0  0  0  0  0  0  0  0
    5.4290    6.5350   16.4390 H   0  0  0  0  0  0  0  0  0  0  0  0
    3.9710    8.3900   17.1300 H   0  0  0  0  0  0  0  0  0  0  0  0
    1.4890    5.6230   19.2970 H   0  0  0  0  0  0  0  0  0  0  0  0
    2.8480    3.3310   18.7570 C   0  0  2  0  0  0  0  0  0  0  0  0
    1.6130    3.3220   19.5210 N   0  0  0  0  0  0  0  0  0  0  0  0
    1.7940    2.8860   20.8100 C   0  0  0  0  0  0  0  0  0  0  0  0
    0.9210    2.8350   21.6570 O   0  0  0  0  0  0  0  0  0  0  0  0
    3.0910    2.5430   20.9750 N   0  0  0  0  0  0  0  0  0  0  0  0
    3.8140    2.8140   19.8520 C   0  0  0  0  0  0  0  0  0  0  0  0
    5.0200    2.6460   19.7440 O   0  0  0  0  0  0  0  0  0  0  0  0
    0.7390    3.7340   19.2250 H   0  0  0  0  0  0  0  0  0  0  0  0
    3.4850    2.2410   21.8480 H   0  0  0  0  0  0  0  0  0  0  0  0
    2.7690    2.2560   17.6660 C   0  0  0  0  0  0  0  0  0  0  0  0
    1.9650    2.4700   16.9510 H   0  0  0  0  0  0  0  0  0  0  0  0
    2.5640    1.2670   18.0920 H   0  0  0  0  0  0  0  0  0  0  0  0
    3.7120    2.1760   17.1130 H   0  0  0  0  0  0  0  0  0  0  0  0
  1  2  1  0  0  0  0
  2  3  2  0  0  0  0
  4  1  1  0  0  0  0
  5  2  1  0  0  0  0
  5  6  1  0  0  0  0
  6 16  1  0  0  0  0
  7  6  2  0  0  0  0
  8 17  1  0  0  0  0
  8  7  1  0  0  0  0
  9 15  1  0  0  0  0
  9  8  2  0  0  0  0
 10  9  1  0  0  0  0
 11 10  1  0  0  0  0
 11 19  1  0  0  0  0
 12 13  1  0  0  0  0
 12 11  1  0  0  0  0
 13 14  1  0  0  0  0
 13 22  1  0  0  0  0
 14 25  1  0  0  0  0
 14 10  1  0  0  0  0
 15  5  2  0  0  0  0
 18 11  1  0  0  0  0
 20 12  1  0  0  0  0
 21 12  1  0  0  0  0
 23 13  1  0  0  0  0
 24 14  1  0  0  0  0
 26 31  1  0  0  0  0
 26 36  1  0  0  0  0
 27 26  2  0  0  0  0
 28 29  2  0  0  0  0
 28 27  1  0  0  0  0
 29 30  1  0  0  0  0
 30  1  1  0  0  0  0
 30 31  2  0  0  0  0
 31 35  1  0  0  0  0
 32 27  1  0  0  0  0
 33 28  1  0  0  0  0
 34 29  1  0  0  0  0
 36 45  1  6  0  0  0
 36 37  1  0  0  0  0
 36 41  1  0  0  0  0
 37 38  1  0  0  0  0
 38 40  1  0  0  0  0
 38 39  2  0  0  0  0
 40 44  1  0  0  0  0
 41 40  1  0  0  0  0
 42 41  2  0  0  0  0
 43 37  1  0  0  0  0
 45 47  1  0  0  0  0
 46 45  1  0  0  0  0
 48 45  1  0  0  0  0
M  END
>  <MODEL>
9

>  <REMARK>
 VINA RESULT:    -8.150      3.157      4.649
 INTER + INTRA:         -10.129
 INTER:                  -9.557
 INTRA:                  -0.572
 UNBOUND:                -0.312
  Name = 
  4 active torsions:
  status: ('A' for Active; 'I' for Inactive)
    1  A    between atoms: C_1  and  C_2
    2  A    between atoms: C_2  and  C_3
    3  A    between atoms: C_7  and  N_8
    4  A    between atoms: C_9  and  C_11
                            x       y       z     vdW  Elec       q    Type
                         _______ _______ _______ _____ _____    ______ ____

>  <TORSDO>
F 4

$$$$
=
 OpenBabel07192307433D

 48 51  0  0  1  0  0  0  0  0999 V2000
    2.1280    7.1540   20.3380 N   0  0  0  0  0  0  0  0  0  0  0  0
    1.7850    5.8170   20.4070 C   0  0  0  0  0  0  0  0  0  0  0  0
    0.7130    5.3420   20.7610 O   0  0  0  0  0  0  0  0  0  0  0  0
    3.0770    7.3190   20.0070 H   0  0  0  0  0  0  0  0  0  0  0  0
    2.8940    4.9150   19.9840 C   0  0  0  0  0  0  0  0  0  0  0  0
    2.8730    3.5750   20.3240 C   0  0  0  0  0  0  0  0  0  0  0  0
    3.8680    2.7370   19.9600 N   0  0  0  0  0  0  0  0  0  0  0  0
    4.8690    3.3160   19.2430 C   0  0  0  0  0  0  0  0  0  0  0  0
    4.9110    4.6680   18.8720 C   0  0  0  0  0  0  0  0  0  0  0  0
    5.9450    5.2120   18.1520 N   0  0  0  0  0  0  0  0  0  0  0  0
    6.8870    4.4340   17.3560 C   0  0  0  0  0  0  0  0  0  0  0  0
    7.3910    5.4240   16.3040 C   0  0  0  0  0  0  0  0  0  0  0  0
    7.2210    6.7770   16.9780 C   0  0  0  0  0  0  0  0  0  0  0  0
    5.9110    6.6090   17.7410 C   0  0  0  0  0  0  0  0  0  0  0  0
    3.9050    5.4860   19.2600 N   0  0  0  0  0  0  0  0  0  0  0  0
    2.0630    3.1380   20.8990 H   0  0  0  0  0  0  0  0  0  0  0  0
    5.6700    2.6360   18.9750 H   0  0  0  0  0  0  0  0  0  0  0  0
    6.4240    3.5710   16.8650 H   0  0  0  0  0  0  0  0  0  0  0  0
    7.7110    4.0880   17.9890 H   0  0  0  0  0  0  0  0  0  0  0  0
    6.7590    5.3720   15.4100 H   0  0  0  0  0  0  0  0  0  0  0  0
    8.4230    5.2240   16.0030 H   0  0  0  0  0  0  0  0  0  0  0  0
    8.0470    6.9540   17.6760 H   0  0  0  0  0  0  0  0  0  0  0  0
    7.1880    7.6070   16.2650 H   0  0  0  0  0  0  0  0  0  0  0  0
    5.0580    6.7970   17.0780 H   0  0  0  0  0  0  0  0  0  0  0  0
    5.8650    7.2960   18.5940 H   0  0  0  0  0  0  0  0  0  0  0  0
   -0.0110   10.2390   20.0530 C   0  0  0  0  0  0  0  0  0  0  0  0
   -0.2030   10.4850   21.4210 C   0  0  0  0  0  0  0  0  0  0  0  0
    0.3630    9.6500   22.3860 C   0  0  0  0  0  0  0  0  0  0  0  0
    1.1300    8.5520   22.0010 C   0  0  0  0  0  0  0  0  0  0  0  0
    1.3410    8.2770   20.6500 C   0  0  0  0  0  0  0  0  0  0  0  0
    0.7670    9.1160   19.6900 C   0  0  0  0  0  0  0  0  0  0  0  0
   -0.7920   11.3300   21.7700 H   0  0  0  0  0  0  0  0  0  0  0  0
    0.2050    9.8590   23.4420 H   0  0  0  0  0  0  0  0  0  0  0  0
    1.5620    7.9200   22.7730 H   0  0  0  0  0  0  0  0  0  0  0  0
    0.9190    8.9070   18.6360 H   0  0  0  0  0  0  0  0  0  0  0  0
   -0.6180   11.1250   18.9680 C   0  0  2  0  0  0  0  0  0  0  0  0
    0.3730   12.0500   18.4490 N   0  0  0  0  0  0  0  0  0  0  0  0
    0.0250   13.3630   18.6510 C   0  0  0  0  0  0  0  0  0  0  0  0
    0.7130   14.3210   18.3490 O   0  0  0  0  0  0  0  0  0  0  0  0
   -1.1880   13.4050   19.2470 N   0  0  0  0  0  0  0  0  0  0  0  0
   -1.6350   12.1490   19.5290 C   0  0  0  0  0  0  0  0  0  0  0  0
   -2.6810   11.8980   20.1100 O   0  0  0  0  0  0  0  0  0  0  0  0
    1.2950   11.7970   18.1200 H   0  0  0  0  0  0  0  0  0  0  0  0
   -1.6380   14.2520   19.5450 H   0  0  0  0  0  0  0  0  0  0  0  0
   -1.2900   10.4020   17.7950 C   0  0  0  0  0  0  0  0  0  0  0  0
   -1.1380   10.9410   16.8520 H   0  0  0  0  0  0  0  0  0  0  0  0
   -2.3740   10.3160   17.9440 H   0  0  0  0  0  0  0  0  0  0  0  0
   -0.9040    9.3830   17.6770 H   0  0  0  0  0  0  0  0  0  0  0  0
  1  2  1  0  0  0  0
  1 30  1  0  0  0  0
  2  3  2  0  0  0  0
  4  1  1  0  0  0  0
  5  6  1  0  0  0  0
  5  2  1  0  0  0  0
  6 16  1  0  0  0  0
  7  6  2  0  0  0  0
  8  7  1  0  0  0  0
  9  8  2  0  0  0  0
  9 15  1  0  0  0  0
 10  9  1  0  0  0  0
 11 19  1  0  0  0  0
 11 10  1  0  0  0  0
 12 13  1  0  0  0  0
 12 11  1  0  0  0  0
 13 22  1  0  0  0  0
 13 14  1  0  0  0  0
 14 10  1  0  0  0  0
 14 25  1  0  0  0  0
 15  5  2  0  0  0  0
 17  8  1  0  0  0  0
 18 11  1  0  0  0  0
 20 12  1  0  0  0  0
 21 12  1  0  0  0  0
 23 13  1  0  0  0  0
 24 14  1  0  0  0  0
 26 27  1  0  0  0  0
 27 32  1  0  0  0  0
 27 28  2  0  0  0  0
 28 33  1  0  0  0  0
 29 28  1  0  0  0  0
 29 34  1  0  0  0  0
 30 29  2  0  0  0  0
 31 26  2  0  0  0  0
 31 30  1  0  0  0  0
 35 31  1  0  0  0  0
 36 45  1  6  0  0  0
 36 41  1  0  0  0  0
 36 26  1  0  0  0  0
 37 38  1  0  0  0  0
 37 36  1  0  0  0  0
 38 40  1  0  0  0  0
 39 38  2  0  0  0  0
 40 41  1  0  0  0  0
 40 44  1  0  0  0  0
 41 42  2  0  0  0  0
 43 37  1  0  0  0  0
 45 47  1  0  0  0  0
 46 45  1  0  0  0  0
 48 45  1  0  0  0  0
M  END
>  <MODEL>
10

>  <REMARK>
 VINA RESULT:    -8.137      3.086      8.898
 INTER + INTRA:         -10.113
 INTER:                  -9.627
 INTRA:                  -0.486
 UNBOUND:                -0.312
  Name = 
  4 active torsions:
  status: ('A' for Active; 'I' for Inactive)
    1  A    between atoms: C_1  and  C_2
    2  A    between atoms: C_2  and  C_3
    3  A    between atoms: C_7  and  N_8
    4  A    between atoms: C_9  and  C_11
                            x       y       z     vdW  Elec       q    Type
                         _______ _______ _______ _____ _____    ______ ____

>  <TORSDO>
F 4

$$$$
=
 OpenBabel07192307433D

 48 51  0  0  1  0  0  0  0  0999 V2000
    1.6070    7.7750   20.4790 N   0  0  0  0  0  0  0  0  0  0  0  0
    2.2210    7.6550   19.2460 C   0  0  0  0  0  0  0  0  0  0  0  0
    2.2260    8.4730   18.3350 O   0  0  0  0  0  0  0  0  0  0  0  0
    1.7420    6.9700   21.0870 H   0  0  0  0  0  0  0  0  0  0  0  0
    2.9410    6.3600   19.0860 C   0  0  0  0  0  0  0  0  0  0  0  0
    2.7780    5.3500   20.0170 C   0  0  0  0  0  0  0  0  0  0  0  0
    3.4220    4.1690   19.8990 N   0  0  0  0  0  0  0  0  0  0  0  0
    4.2250    4.0620   18.8060 C   0  0  0  0  0  0  0  0  0  0  0  0
    4.3990    5.0630   17.8380 C   0  0  0  0  0  0  0  0  0  0  0  0
    5.2250    4.9140   16.7520 N   0  0  0  0  0  0  0  0  0  0  0  0
    5.6900    3.6280   16.2470 C   0  0  0  0  0  0  0  0  0  0  0  0
    6.0010    3.8970   14.7740 C   0  0  0  0  0  0  0  0  0  0  0  0
    6.3190    5.3840   14.7430 C   0  0  0  0  0  0  0  0  0  0  0  0
    5.3240    5.9610   15.7440 C   0  0  0  0  0  0  0  0  0  0  0  0
    3.7480    6.2400   17.9880 N   0  0  0  0  0  0  0  0  0  0  0  0
    2.1330    5.4620   20.8820 H   0  0  0  0  0  0  0  0  0  0  0  0
    4.7510    3.1160   18.7350 H   0  0  0  0  0  0  0  0  0  0  0  0
    4.9370    2.8360   16.3300 H   0  0  0  0  0  0  0  0  0  0  0  0
    6.5940    3.3230   16.7840 H   0  0  0  0  0  0  0  0  0  0  0  0
    5.1140    3.6950   14.1620 H   0  0  0  0  0  0  0  0  0  0  0  0
    6.8200    3.2780   14.3990 H   0  0  0  0  0  0  0  0  0  0  0  0
    7.3460    5.5550   15.0890 H   0  0  0  0  0  0  0  0  0  0  0  0
    6.2130    5.8230   13.7460 H   0  0  0  0  0  0  0  0  0  0  0  0
    4.3520    6.1270   15.2620 H   0  0  0  0  0  0  0  0  0  0  0  0
    5.6890    6.9080   16.1580 H   0  0  0  0  0  0  0  0  0  0  0  0
   -0.4280   10.9330   20.7270 C   0  0  0  0  0  0  0  0  0  0  0  0
   -0.6340   10.9390   22.1150 C   0  0  0  0  0  0  0  0  0  0  0  0
   -0.1100    9.9260   22.9220 C   0  0  0  0  0  0  0  0  0  0  0  0
    0.6280    8.8890   22.3550 C   0  0  0  0  0  0  0  0  0  0  0  0
    0.8510    8.8510   20.9790 C   0  0  0  0  0  0  0  0  0  0  0  0
    0.3200    9.8660   20.1780 C   0  0  0  0  0  0  0  0  0  0  0  0
   -1.2010   11.7280   22.6030 H   0  0  0  0  0  0  0  0  0  0  0  0
   -0.2780    9.9490   23.9970 H   0  0  0  0  0  0  0  0  0  0  0  0
    1.0270    8.1150   23.0060 H   0  0  0  0  0  0  0  0  0  0  0  0
    0.4810    9.8430   19.1050 H   0  0  0  0  0  0  0  0  0  0  0  0
   -0.9900   12.0170   19.8120 C   0  0  2  0  0  0  0  0  0  0  0  0
   -1.6900   13.0280   20.5850 N   0  0  0  0  0  0  0  0  0  0  0  0
   -3.0180   13.1220   20.2500 C   0  0  0  0  0  0  0  0  0  0  0  0
   -3.8220   13.8590   20.7890 O   0  0  0  0  0  0  0  0  0  0  0  0
   -3.2740   12.2570   19.2430 N   0  0  0  0  0  0  0  0  0  0  0  0
   -2.1690   11.5170   18.9420 C   0  0  0  0  0  0  0  0  0  0  0  0
   -2.1360   10.6280   18.1040 O   0  0  0  0  0  0  0  0  0  0  0  0
   -1.3180   13.5080   21.3930 H   0  0  0  0  0  0  0  0  0  0  0  0
   -4.1880   12.1020   18.8550 H   0  0  0  0  0  0  0  0  0  0  0  0
    0.0120   12.7080   18.8780 C   0  0  0  0  0  0  0  0  0  0  0  0
    0.9030   12.0890   18.7190 H   0  0  0  0  0  0  0  0  0  0  0  0
    0.3560   13.6630   19.2940 H   0  0  0  0  0  0  0  0  0  0  0  0
   -0.4360   12.9280   17.9020 H   0  0  0  0  0  0  0  0  0  0  0  0
  1 30  1  0  0  0  0
  1  4  1  0  0  0  0
  2  1  1  0  0  0  0
  3  2  2  0  0  0  0
  5  2  1  0  0  0  0
  5  6  1  0  0  0  0
  6 16  1  0  0  0  0
  7  6  2  0  0  0  0
  8  7  1  0  0  0  0
  9 15  1  0  0  0  0
  9  8  2  0  0  0  0
 10  9  1  0  0  0  0
 11 18  1  0  0  0  0
 11 10  1  0  0  0  0
 11 19  1  0  0  0  0
 12 11  1  0  0  0  0
 13 12  1  0  0  0  0
 13 22  1  0  0  0  0
 13 14  1  0  0  0  0
 14 25  1  0  0  0  0
 14 10  1  0  0  0  0
 15  5  2  0  0  0  0
 17  8  1  0  0  0  0
 20 12  1  0  0  0  0
 21 12  1  0  0  0  0
 23 13  1  0  0  0  0
 24 14  1  0  0  0  0
 26 27  1  0  0  0  0
 27 32  1  0  0  0  0
 27 28  2  0  0  0  0
 28 33  1  0  0  0  0
 29 28  1  0  0  0  0
 29 34  1  0  0  0  0
 30 29  2  0  0  0  0
 31 26  2  0  0  0  0
 31 30  1  0  0  0  0
 35 31  1  0  0  0  0
 36 45  1  6  0  0  0
 36 37  1  0  0  0  0
 36 26  1  0  0  0  0
 37 43  1  0  0  0  0
 38 37  1  0  0  0  0
 38 39  2  0  0  0  0
 40 38  1  0  0  0  0
 41 40  1  0  0  0  0
 41 36  1  0  0  0  0
 42 41  2  0  0  0  0
 44 40  1  0  0  0  0
 45 47  1  0  0  0  0
 46 45  1  0  0  0  0
 48 45  1  0  0  0  0
M  END
>  <MODEL>
11

>  <REMARK>
 VINA RESULT:    -8.112      2.588      9.464
 INTER + INTRA:         -10.084
 INTER:                  -9.844
 INTRA:                  -0.240
 UNBOUND:                -0.312
  Name = 
  4 active torsions:
  status: ('A' for Active; 'I' for Inactive)
    1  A    between atoms: C_1  and  C_2
    2  A    between atoms: C_2  and  C_3
    3  A    between atoms: C_7  and  N_8
    4  A    between atoms: C_9  and  C_11
                            x       y       z     vdW  Elec       q    Type
                         _______ _______ _______ _____ _____    ______ ____

>  <TORSDO>
F 4

$$$$
=
 OpenBabel07192307433D

 48 51  0  0  1  0  0  0  0  0999 V2000
    1.6510    8.5320   19.9710 N   0  0  0  0  0  0  0  0  0  0  0  0
    0.7130    8.6090   20.9840 C   0  0  0  0  0  0  0  0  0  0  0  0
    0.1850    7.6780   21.5800 O   0  0  0  0  0  0  0  0  0  0  0  0
    1.9580    9.4390   19.6250 H   0  0  0  0  0  0  0  0  0  0  0  0
    0.3580   10.0130   21.3350 C   0  0  0  0  0  0  0  0  0  0  0  0
   -0.4750   10.2760   22.4070 C   0  0  0  0  0  0  0  0  0  0  0  0
   -0.8180   11.5380   22.7430 N   0  0  0  0  0  0  0  0  0  0  0  0
   -0.2810   12.5070   21.9520 C   0  0  0  0  0  0  0  0  0  0  0  0
    0.5760   12.2720   20.8670 C   0  0  0  0  0  0  0  0  0  0  0  0
    1.0910   13.2800   20.0910 N   0  0  0  0  0  0  0  0  0  0  0  0
    1.1590   14.6770   20.5030 C   0  0  0  0  0  0  0  0  0  0  0  0
    2.3070   15.2540   19.6720 C   0  0  0  0  0  0  0  0  0  0  0  0
    2.3360   14.3640   18.4390 C   0  0  0  0  0  0  0  0  0  0  0  0
    2.0250   12.9850   19.0130 C   0  0  0  0  0  0  0  0  0  0  0  0
    0.8940   10.9950   20.5480 N   0  0  0  0  0  0  0  0  0  0  0  0
   -0.8920    9.4850   23.0210 H   0  0  0  0  0  0  0  0  0  0  0  0
   -0.5810   13.5140   22.2220 H   0  0  0  0  0  0  0  0  0  0  0  0
    1.3730   14.8000   21.5700 H   0  0  0  0  0  0  0  0  0  0  0  0
    0.2170   15.1800   20.2640 H   0  0  0  0  0  0  0  0  0  0  0  0
    3.2500   15.1580   20.2220 H   0  0  0  0  0  0  0  0  0  0  0  0
    2.1590   16.3100   19.4320 H   0  0  0  0  0  0  0  0  0  0  0  0
    1.5510   14.6690   17.7380 H   0  0  0  0  0  0  0  0  0  0  0  0
    3.2970   14.3930   17.9150 H   0  0  0  0  0  0  0  0  0  0  0  0
    2.9380   12.5230   19.4080 H   0  0  0  0  0  0  0  0  0  0  0  0
    1.5900   12.3320   18.2480 H   0  0  0  0  0  0  0  0  0  0  0  0
    2.7020    4.9770   19.3160 C   0  0  0  0  0  0  0  0  0  0  0  0
    3.4140    5.1880   18.1240 C   0  0  0  0  0  0  0  0  0  0  0  0
    3.5310    6.4660   17.5750 C   0  0  0  0  0  0  0  0  0  0  0  0
    2.9370    7.5580   18.2060 C   0  0  0  0  0  0  0  0  0  0  0  0
    2.2200    7.3850   19.3910 C   0  0  0  0  0  0  0  0  0  0  0  0
    2.1050    6.1010   19.9320 C   0  0  0  0  0  0  0  0  0  0  0  0
    3.8970    4.3680   17.5980 H   0  0  0  0  0  0  0  0  0  0  0  0
    4.0890    6.6100   16.6530 H   0  0  0  0  0  0  0  0  0  0  0  0
    3.0450    8.5420   17.7590 H   0  0  0  0  0  0  0  0  0  0  0  0
    1.5440    5.9540   20.8490 H   0  0  0  0  0  0  0  0  0  0  0  0
    2.5470    3.5950   19.9430 C   0  0  2  0  0  0  0  0  0  0  0  0
    3.6910    2.7580   19.6280 N   0  0  0  0  0  0  0  0  0  0  0  0
    3.3450    1.6380   18.9140 C   0  0  0  0  0  0  0  0  0  0  0  0
    4.1300    0.8100   18.4910 O   0  0  0  0  0  0  0  0  0  0  0  0
    2.0020    1.6240   18.7530 N   0  0  0  0  0  0  0  0  0  0  0  0
    1.4370    2.7510   19.2690 C   0  0  0  0  0  0  0  0  0  0  0  0
    0.2450    3.0180   19.2170 O   0  0  0  0  0  0  0  0  0  0  0  0
    4.6600    3.0180   19.7580 H   0  0  0  0  0  0  0  0  0  0  0  0
    1.5080    0.9300   18.2200 H   0  0  0  0  0  0  0  0  0  0  0  0
    2.3020    3.5570   21.4570 C   0  0  0  0  0  0  0  0  0  0  0  0
    1.7190    2.6750   21.7460 H   0  0  0  0  0  0  0  0  0  0  0  0
    1.7400    4.4370   21.7940 H   0  0  0  0  0  0  0  0  0  0  0  0
    3.2450    3.5480   22.0150 H   0  0  0  0  0  0  0  0  0  0  0  0
  1  2  1  0  0  0  0
  2  5  1  0  0  0  0
  2  3  2  0  0  0  0
  4  1  1  0  0  0  0
  5  6  1  0  0  0  0
  6  7  2  0  0  0  0
  6 16  1  0  0  0  0
  8 17  1  0  0  0  0
  8  7  1  0  0  0  0
  9  8  2  0  0  0  0
 10 11  1  0  0  0  0
 10  9  1  0  0  0  0
 11 18  1  0  0  0  0
 12 20  1  0  0  0  0
 12 11  1  0  0  0  0
 13 14  1  0  0  0  0
 13 12  1  0  0  0  0
 14 24  1  0  0  0  0
 14 10  1  0  0  0  0
 15  9  1  0  0  0  0
 15  5  2  0  0  0  0
 19 11  1  0  0  0  0
 21 12  1  0  0  0  0
 22 13  1  0  0  0  0
 23 13  1  0  0  0  0
 25 14  1  0  0  0  0
 26 31  1  0  0  0  0
 26 36  1  0  0  0  0
 27 26  2  0  0  0  0
 28 27  1  0  0  0  0
 28 29  2  0  0  0  0
 29 30  1  0  0  0  0
 30 31  2  0  0  0  0
 30  1  1  0  0  0  0
 31 35  1  0  0  0  0
 32 27  1  0  0  0  0
 33 28  1  0  0  0  0
 34 29  1  0  0  0  0
 36 45  1  1  0  0  0
 37 43  1  0  0  0  0
 37 36  1  0  0  0  0
 38 37  1  0  0  0  0
 39 38  2  0  0  0  0
 40 38  1  0  0  0  0
 40 41  1  0  0  0  0
 41 36  1  0  0  0  0
 42 41  2  0  0  0  0
 44 40  1  0  0  0  0
 45 46  1  0  0  0  0
 45 47  1  0  0  0  0
 45 48  1  0  0  0  0
M  END
>  <MODEL>
12

>  <REMARK>
 VINA RESULT:    -8.086      2.984      4.063
 INTER + INTRA:         -10.052
 INTER:                  -9.705
 INTRA:                  -0.347
 UNBOUND:                -0.312
  Name = 
  4 active torsions:
  status: ('A' for Active; 'I' for Inactive)
    1  A    between atoms: C_1  and  C_2
    2  A    between atoms: C_2  and  C_3
    3  A    between atoms: C_7  and  N_8
    4  A    between atoms: C_9  and  C_11
                            x       y       z     vdW  Elec       q    Type
                         _______ _______ _______ _____ _____    ______ ____

>  <TORSDO>
F 4

$$$$
=
 OpenBabel07192307433D

 48 51  0  0  1  0  0  0  0  0999 V2000
    1.5920    8.3200   19.5950 N   0  0  0  0  0  0  0  0  0  0  0  0
    2.2650    8.5060   18.4020 C   0  0  0  0  0  0  0  0  0  0  0  0
    2.3180    9.5290   17.7300 O   0  0  0  0  0  0  0  0  0  0  0  0
    1.6930    7.3840   19.9830 H   0  0  0  0  0  0  0  0  0  0  0  0
    2.9840    7.2820   17.9500 C   0  0  0  0  0  0  0  0  0  0  0  0
    4.1980    7.3860   17.2950 C   0  0  0  0  0  0  0  0  0  0  0  0
    4.8680    6.2930   16.8700 N   0  0  0  0  0  0  0  0  0  0  0  0
    4.2570    5.1070   17.1380 C   0  0  0  0  0  0  0  0  0  0  0  0
    3.0340    4.9700   17.8110 C   0  0  0  0  0  0  0  0  0  0  0  0
    2.4510    3.7520   18.0560 N   0  0  0  0  0  0  0  0  0  0  0  0
    3.1650    2.4810   18.0300 C   0  0  0  0  0  0  0  0  0  0  0  0
    2.3360    1.5690   18.9350 C   0  0  0  0  0  0  0  0  0  0  0  0
    0.9370    2.1610   18.8520 C   0  0  0  0  0  0  0  0  0  0  0  0
    1.2090    3.6610   18.8130 C   0  0  0  0  0  0  0  0  0  0  0  0
    2.3810    6.0840   18.2180 N   0  0  0  0  0  0  0  0  0  0  0  0
    4.6630    8.3440   17.0910 H   0  0  0  0  0  0  0  0  0  0  0  0
    4.7970    4.2400   16.7730 H   0  0  0  0  0  0  0  0  0  0  0  0
    4.1890    2.5560   18.4130 H   0  0  0  0  0  0  0  0  0  0  0  0
    3.1910    2.0920   17.0070 H   0  0  0  0  0  0  0  0  0  0  0  0
    2.7040    1.6310   19.9660 H   0  0  0  0  0  0  0  0  0  0  0  0
    2.3750    0.5230   18.6230 H   0  0  0  0  0  0  0  0  0  0  0  0
    0.4500    1.8410   17.9240 H   0  0  0  0  0  0  0  0  0  0  0  0
    0.3010    1.8710   19.6940 H   0  0  0  0  0  0  0  0  0  0  0  0
    1.3470    4.0490   19.8310 H   0  0  0  0  0  0  0  0  0  0  0  0
    0.3840    4.1970   18.3310 H   0  0  0  0  0  0  0  0  0  0  0  0
   -0.6050   11.2410   20.5010 C   0  0  0  0  0  0  0  0  0  0  0  0
   -0.6860   11.0180   21.8850 C   0  0  0  0  0  0  0  0  0  0  0  0
   -0.0300    9.9360   22.4760 C   0  0  0  0  0  0  0  0  0  0  0  0
    0.7170    9.0560   21.6960 C   0  0  0  0  0  0  0  0  0  0  0  0
    0.8190    9.2460   20.3170 C   0  0  0  0  0  0  0  0  0  0  0  0
    0.1560   10.3300   19.7320 C   0  0  0  0  0  0  0  0  0  0  0  0
   -1.2550   11.6780   22.5340 H   0  0  0  0  0  0  0  0  0  0  0  0
   -0.1020    9.7820   23.5510 H   0  0  0  0  0  0  0  0  0  0  0  0
    1.2200    8.2250   22.1820 H   0  0  0  0  0  0  0  0  0  0  0  0
    0.2220   10.4830   18.6600 H   0  0  0  0  0  0  0  0  0  0  0  0
   -1.3120   12.4070   19.8170 C   0  0  2  0  0  0  0  0  0  0  0  0
   -1.8700   13.3160   20.8020 N   0  0  0  0  0  0  0  0  0  0  0  0
   -3.2350   13.4230   20.7070 C   0  0  0  0  0  0  0  0  0  0  0  0
   -3.9360   14.0840   21.4510 O   0  0  0  0  0  0  0  0  0  0  0  0
   -3.6590   12.6660   19.6700 N   0  0  0  0  0  0  0  0  0  0  0  0
   -2.6220   11.9830   19.1090 C   0  0  0  0  0  0  0  0  0  0  0  0
   -2.7320   11.1890   18.1860 O   0  0  0  0  0  0  0  0  0  0  0  0
   -1.3660   13.7140   21.5830 H   0  0  0  0  0  0  0  0  0  0  0  0
   -4.6260   12.5390   19.4270 H   0  0  0  0  0  0  0  0  0  0  0  0
   -0.4810   13.2110   18.8080 C   0  0  0  0  0  0  0  0  0  0  0  0
   -0.9770   13.2600   17.8310 H   0  0  0  0  0  0  0  0  0  0  0  0
    0.5030   12.7540   18.6450 H   0  0  0  0  0  0  0  0  0  0  0  0
   -0.3040   14.2340   19.1600 H   0  0  0  0  0  0  0  0  0  0  0  0
  1  4  1  0  0  0  0
  1 30  1  0  0  0  0
  2  1  1  0  0  0  0
  3  2  2  0  0  0  0
  5 15  1  0  0  0  0
  5  2  1  0  0  0  0
  6  5  2  0  0  0  0
  7  8  2  0  0  0  0
  7  6  1  0  0  0  0
  8  9  1  0  0  0  0
  9 10  1  0  0  0  0
  9 15  2  0  0  0  0
 10 14  1  0  0  0  0
 11 10  1  0  0  0  0
 11 18  1  0  0  0  0
 11 12  1  0  0  0  0
 12 20  1  0  0  0  0
 13 12  1  0  0  0  0
 13 23  1  0  0  0  0
 14 13  1  0  0  0  0
 14 24  1  0  0  0  0
 16  6  1  0  0  0  0
 17  8  1  0  0  0  0
 19 11  1  0  0  0  0
 21 12  1  0  0  0  0
 22 13  1  0  0  0  0
 25 14  1  0  0  0  0
 26 27  1  0  0  0  0
 27 28  2  0  0  0  0
 27 32  1  0  0  0  0
 28 33  1  0  0  0  0
 29 34  1  0  0  0  0
 29 28  1  0  0  0  0
 30 29  2  0  0  0  0
 31 30  1  0  0  0  0
 31 26  2  0  0  0  0
 35 31  1  0  0  0  0
 36 45  1  6  0  0  0
 36 26  1  0  0  0  0
 36 37  1  0  0  0  0
 37 43  1  0  0  0  0
 38 37  1  0  0  0  0
 38 39  2  0  0  0  0
 40 38  1  0  0  0  0
 41 40  1  0  0  0  0
 41 36  1  0  0  0  0
 42 41  2  0  0  0  0
 44 40  1  0  0  0  0
 45 48  1  0  0  0  0
 46 45  1  0  0  0  0
 47 45  1  0  0  0  0
M  END
>  <MODEL>
13

>  <REMARK>
 VINA RESULT:    -8.027      2.789      9.629
 INTER + INTRA:          -9.981
 INTER:                  -9.615
 INTRA:                  -0.366
 UNBOUND:                -0.312
  Name = 
  4 active torsions:
  status: ('A' for Active; 'I' for Inactive)
    1  A    between atoms: C_1  and  C_2
    2  A    between atoms: C_2  and  C_3
    3  A    between atoms: C_7  and  N_8
    4  A    between atoms: C_9  and  C_11
                            x       y       z     vdW  Elec       q    Type
                         _______ _______ _______ _____ _____    ______ ____

>  <TORSDO>
F 4

$$$$
=
 OpenBabel07192307433D

 48 51  0  0  1  0  0  0  0  0999 V2000
    1.4200    8.0970   19.8920 N   0  0  0  0  0  0  0  0  0  0  0  0
    1.2340    8.9740   20.9450 C   0  0  0  0  0  0  0  0  0  0  0  0
    1.5790    8.8200   22.1100 O   0  0  0  0  0  0  0  0  0  0  0  0
    1.0560    8.4380   19.0040 H   0  0  0  0  0  0  0  0  0  0  0  0
    0.5320   10.2230   20.5370 C   0  0  0  0  0  0  0  0  0  0  0  0
    0.8190   10.8220   19.3240 C   0  0  0  0  0  0  0  0  0  0  0  0
    0.2020   11.9580   18.9320 N   0  0  0  0  0  0  0  0  0  0  0  0
   -0.7090   12.4480   19.8170 C   0  0  0  0  0  0  0  0  0  0  0  0
   -1.0310   11.8560   21.0470 C   0  0  0  0  0  0  0  0  0  0  0  0
   -1.9530   12.3890   21.9120 N   0  0  0  0  0  0  0  0  0  0  0  0
   -2.9760   13.3540   21.5270 C   0  0  0  0  0  0  0  0  0  0  0  0
   -4.0800   13.1620   22.5670 C   0  0  0  0  0  0  0  0  0  0  0  0
   -3.3380   12.6200   23.7790 C   0  0  0  0  0  0  0  0  0  0  0  0
   -2.2950   11.7020   23.1500 C   0  0  0  0  0  0  0  0  0  0  0  0
   -0.3880   10.7230   21.4170 N   0  0  0  0  0  0  0  0  0  0  0  0
    1.5520   10.4120   18.6380 H   0  0  0  0  0  0  0  0  0  0  0  0
   -1.1820   13.3710   19.4970 H   0  0  0  0  0  0  0  0  0  0  0  0
   -3.3750   13.1780   20.5210 H   0  0  0  0  0  0  0  0  0  0  0  0
   -2.5660   14.3680   21.5790 H   0  0  0  0  0  0  0  0  0  0  0  0
   -4.8030   12.4180   22.2110 H   0  0  0  0  0  0  0  0  0  0  0  0
   -4.6220   14.0870   22.7780 H   0  0  0  0  0  0  0  0  0  0  0  0
   -2.8460   13.4410   24.3140 H   0  0  0  0  0  0  0  0  0  0  0  0
   -3.9930   12.0930   24.4800 H   0  0  0  0  0  0  0  0  0  0  0  0
   -2.7320   10.7180   22.9390 H   0  0  0  0  0  0  0  0  0  0  0  0
   -1.4310   11.5790   23.8130 H   0  0  0  0  0  0  0  0  0  0  0  0
    3.7330    5.2220   19.1470 C   0  0  0  0  0  0  0  0  0  0  0  0
    3.1790    4.2770   20.0240 C   0  0  0  0  0  0  0  0  0  0  0  0
    2.0800    4.5990   20.8230 C   0  0  0  0  0  0  0  0  0  0  0  0
    1.5160    5.8720   20.7620 C   0  0  0  0  0  0  0  0  0  0  0  0
    2.0420    6.8370   19.9020 C   0  0  0  0  0  0  0  0  0  0  0  0
    3.1450    6.5070   19.1080 C   0  0  0  0  0  0  0  0  0  0  0  0
    3.5830    3.2710   20.1050 H   0  0  0  0  0  0  0  0  0  0  0  0
    1.6620    3.8520   21.4950 H   0  0  0  0  0  0  0  0  0  0  0  0
    0.6600    6.0950   21.3930 H   0  0  0  0  0  0  0  0  0  0  0  0
    3.5670    7.2520   18.4410 H   0  0  0  0  0  0  0  0  0  0  0  0
    4.9370    4.9110   18.2620 C   0  0  2  0  0  0  0  0  0  0  0  0
    6.1250    4.6980   19.0700 N   0  0  0  0  0  0  0  0  0  0  0  0
    7.1180    5.6060   18.7980 C   0  0  0  0  0  0  0  0  0  0  0  0
    8.1880    5.6640   19.3760 O   0  0  0  0  0  0  0  0  0  0  0  0
    6.7020    6.4190   17.8010 N   0  0  0  0  0  0  0  0  0  0  0  0
    5.4160    6.1370   17.4470 C   0  0  0  0  0  0  0  0  0  0  0  0
    4.7770    6.7520   16.6050 O   0  0  0  0  0  0  0  0  0  0  0  0
    6.1900    4.0730   19.8620 H   0  0  0  0  0  0  0  0  0  0  0  0
    7.2310    7.2000   17.4550 H   0  0  0  0  0  0  0  0  0  0  0  0
    4.7810    3.7390   17.2850 C   0  0  0  0  0  0  0  0  0  0  0  0
    3.7600    3.3390   17.3000 H   0  0  0  0  0  0  0  0  0  0  0  0
    5.4530    2.9110   17.5420 H   0  0  0  0  0  0  0  0  0  0  0  0
    5.0210    4.0380   16.2590 H   0  0  0  0  0  0  0  0  0  0  0  0
  1 30  1  0  0  0  0
  1  2  1  0  0  0  0
  2  3  2  0  0  0  0
  4  1  1  0  0  0  0
  5  2  1  0  0  0  0
  5 15  1  0  0  0  0
  6  5  2  0  0  0  0
  7  6  1  0  0  0  0
  7  8  2  0  0  0  0
  8  9  1  0  0  0  0
  9 15  2  0  0  0  0
  9 10  1  0  0  0  0
 10 14  1  0  0  0  0
 11 19  1  0  0  0  0
 11 10  1  0  0  0  0
 11 12  1  0  0  0  0
 12 21  1  0  0  0  0
 12 13  1  0  0  0  0
 13 22  1  0  0  0  0
 13 23  1  0  0  0  0
 14 13  1  0  0  0  0
 14 25  1  0  0  0  0
 16  6  1  0  0  0  0
 17  8  1  0  0  0  0
 18 11  1  0  0  0  0
 20 12  1  0  0  0  0
 24 14  1  0  0  0  0
 26 27  1  0  0  0  0
 27 32  1  0  0  0  0
 27 28  2  0  0  0  0
 28 33  1  0  0  0  0
 29 28  1  0  0  0  0
 29 34  1  0  0  0  0
 30 29  2  0  0  0  0
 31 26  2  0  0  0  0
 31 30  1  0  0  0  0
 35 31  1  0  0  0  0
 36 45  1  6  0  0  0
 36 37  1  0  0  0  0
 36 26  1  0  0  0  0
 37 43  1  0  0  0  0
 38 37  1  0  0  0  0
 38 39  2  0  0  0  0
 40 38  1  0  0  0  0
 41 40  1  0  0  0  0
 41 36  1  0  0  0  0
 42 41  2  0  0  0  0
 44 40  1  0  0  0  0
 45 46  1  0  0  0  0
 45 47  1  0  0  0  0
 48 45  1  0  0  0  0
M  END
>  <MODEL>
14

>  <REMARK>
 VINA RESULT:    -8.014      2.261      3.280
 INTER + INTRA:          -9.965
 INTER:                  -9.708
 INTRA:                  -0.256
 UNBOUND:                -0.312
  Name = 
  4 active torsions:
  status: ('A' for Active; 'I' for Inactive)
    1  A    between atoms: C_1  and  C_2
    2  A    between atoms: C_2  and  C_3
    3  A    between atoms: C_7  and  N_8
    4  A    between atoms: C_9  and  C_11
                            x       y       z     vdW  Elec       q    Type
                         _______ _______ _______ _____ _____    ______ ____

>  <TORSDO>
F 4

$$$$
=
 OpenBabel07192307433D

 48 51  0  0  1  0  0  0  0  0999 V2000
    1.5730    8.4770   18.5700 N   0  0  0  0  0  0  0  0  0  0  0  0
    1.1260    9.0300   19.7560 C   0  0  0  0  0  0  0  0  0  0  0  0
    1.4450    8.7080   20.8930 O   0  0  0  0  0  0  0  0  0  0  0  0
    1.1750    8.9100   17.7390 H   0  0  0  0  0  0  0  0  0  0  0  0
    0.1500   10.1370   19.5430 C   0  0  0  0  0  0  0  0  0  0  0  0
   -0.0820   10.6290   18.2720 C   0  0  0  0  0  0  0  0  0  0  0  0
   -0.9560   11.6350   18.0510 N   0  0  0  0  0  0  0  0  0  0  0  0
   -1.5760   12.1080   19.1670 C   0  0  0  0  0  0  0  0  0  0  0  0
   -1.3710   11.6210   20.4660 C   0  0  0  0  0  0  0  0  0  0  0  0
   -2.0150   12.1320   21.5640 N   0  0  0  0  0  0  0  0  0  0  0  0
   -3.2390   12.9230   21.5020 C   0  0  0  0  0  0  0  0  0  0  0  0
   -3.8850   12.7170   22.8720 C   0  0  0  0  0  0  0  0  0  0  0  0
   -2.7050   12.4020   23.7790 C   0  0  0  0  0  0  0  0  0  0  0  0
   -1.8130   11.5490   22.8830 C   0  0  0  0  0  0  0  0  0  0  0  0
   -0.4820   10.6180   20.6570 N   0  0  0  0  0  0  0  0  0  0  0  0
    0.4280   10.2350   17.3990 H   0  0  0  0  0  0  0  0  0  0  0  0
   -2.2600   12.9290   18.9760 H   0  0  0  0  0  0  0  0  0  0  0  0
   -3.9240   12.5930   20.7130 H   0  0  0  0  0  0  0  0  0  0  0  0
   -2.9900   13.9780   21.3450 H   0  0  0  0  0  0  0  0  0  0  0  0
   -4.5670   11.8590   22.8380 H   0  0  0  0  0  0  0  0  0  0  0  0
   -4.4540   13.5900   23.2020 H   0  0  0  0  0  0  0  0  0  0  0  0
   -2.1890   13.3280   24.0570 H   0  0  0  0  0  0  0  0  0  0  0  0
   -3.0000   11.8810   24.6960 H   0  0  0  0  0  0  0  0  0  0  0  0
   -2.1450   10.5030   22.9000 H   0  0  0  0  0  0  0  0  0  0  0  0
   -0.7680   11.6010   23.2090 H   0  0  0  0  0  0  0  0  0  0  0  0
    3.2930    5.1330   18.7300 C   0  0  0  0  0  0  0  0  0  0  0  0
    4.4100    5.4360   17.9350 C   0  0  0  0  0  0  0  0  0  0  0  0
    4.5700    6.7060   17.3770 C   0  0  0  0  0  0  0  0  0  0  0  0
    3.6150    7.6960   17.6020 C   0  0  0  0  0  0  0  0  0  0  0  0
    2.4910    7.4290   18.3850 C   0  0  0  0  0  0  0  0  0  0  0  0
    2.3380    6.1540   18.9370 C   0  0  0  0  0  0  0  0  0  0  0  0
    5.1820    4.6970   17.7340 H   0  0  0  0  0  0  0  0  0  0  0  0
    5.4440    6.9230   16.7670 H   0  0  0  0  0  0  0  0  0  0  0  0
    3.7650    8.6770   17.1580 H   0  0  0  0  0  0  0  0  0  0  0  0
    1.4640    5.9330   19.5420 H   0  0  0  0  0  0  0  0  0  0  0  0
    3.0800    3.7550   19.3510 C   0  0  2  0  0  0  0  0  0  0  0  0
    2.2570    2.9270   18.4890 N   0  0  0  0  0  0  0  0  0  0  0  0
    1.0850    2.5410   19.0900 C   0  0  0  0  0  0  0  0  0  0  0  0
    0.2090    1.8850   18.5560 O   0  0  0  0  0  0  0  0  0  0  0  0
    1.0670    3.0220   20.3540 N   0  0  0  0  0  0  0  0  0  0  0  0
    2.1630    3.7950   20.5970 C   0  0  0  0  0  0  0  0  0  0  0  0
    2.3740    4.3910   21.6440 O   0  0  0  0  0  0  0  0  0  0  0  0
    2.4160    2.7670   17.5030 H   0  0  0  0  0  0  0  0  0  0  0  0
    0.2910    2.9170   20.9840 H   0  0  0  0  0  0  0  0  0  0  0  0
    4.3450    2.9770   19.7330 C   0  0  0  0  0  0  0  0  0  0  0  0
    5.1730    3.6530   19.9780 H   0  0  0  0  0  0  0  0  0  0  0  0
    4.6870    2.3380   18.9080 H   0  0  0  0  0  0  0  0  0  0  0  0
    4.1680    2.3200   20.5920 H   0  0  0  0  0  0  0  0  0  0  0  0
  1  2  1  0  0  0  0
  2  3  2  0  0  0  0
  4  1  1  0  0  0  0
  5  2  1  0  0  0  0
  5 15  1  0  0  0  0
  6  5  2  0  0  0  0
  7  6  1  0  0  0  0
  7  8  2  0  0  0  0
  8  9  1  0  0  0  0
  9 15  2  0  0  0  0
  9 10  1  0  0  0  0
 10 14  1  0  0  0  0
 11 10  1  0  0  0  0
 11 12  1  0  0  0  0
 12 21  1  0  0  0  0
 12 13  1  0  0  0  0
 13 22  1  0  0  0  0
 13 23  1  0  0  0  0
 14 24  1  0  0  0  0
 14 25  1  0  0  0  0
 14 13  1  0  0  0  0
 16  6  1  0  0  0  0
 17  8  1  0  0  0  0
 18 11  1  0  0  0  0
 19 11  1  0  0  0  0
 20 12  1  0  0  0  0
 26 31  1  0  0  0  0
 26 36  1  0  0  0  0
 27 26  2  0  0  0  0
 28 29  2  0  0  0  0
 28 27  1  0  0  0  0
 29 30  1  0  0  0  0
 30  1  1  0  0  0  0
 30 31  2  0  0  0  0
 31 35  1  0  0  0  0
 32 27  1  0  0  0  0
 33 28  1  0  0  0  0
 34 29  1  0  0  0  0
 36 45  1  1  0  0  0
 36 41  1  0  0  0  0
 37 38  1  0  0  0  0
 37 36  1  0  0  0  0
 38 40  1  0  0  0  0
 39 38  2  0  0  0  0
 40 41  1  0  0  0  0
 40 44  1  0  0  0  0
 41 42  2  0  0  0  0
 43 37  1  0  0  0  0
 45 46  1  0  0  0  0
 45 48  1  0  0  0  0
 47 45  1  0  0  0  0
M  END
>  <MODEL>
15

>  <REMARK>
 VINA RESULT:    -8.000      3.266      4.428
 INTER + INTRA:          -9.949
 INTER:                  -9.427
 INTRA:                  -0.522
 UNBOUND:                -0.312
  Name = 
  4 active torsions:
  status: ('A' for Active; 'I' for Inactive)
    1  A    between atoms: C_1  and  C_2
    2  A    between atoms: C_2  and  C_3
    3  A    between atoms: C_7  and  N_8
    4  A    between atoms: C_9  and  C_11
                            x       y       z     vdW  Elec       q    Type
                         _______ _______ _______ _____ _____    ______ ____

>  <TORSDO>
F 4

$$$$
=
 OpenBabel07192307433D

 48 51  0  0  1  0  0  0  0  0999 V2000
    1.9830    8.1720   18.4560 N   0  0  0  0  0  0  0  0  0  0  0  0
    1.4800    8.6310   19.6600 C   0  0  0  0  0  0  0  0  0  0  0  0
    1.6290    8.1310   20.7670 O   0  0  0  0  0  0  0  0  0  0  0  0
    1.7370    8.7540   17.6580 H   0  0  0  0  0  0  0  0  0  0  0  0
    0.6810    9.8810   19.5100 C   0  0  0  0  0  0  0  0  0  0  0  0
    0.6730   10.5660   18.3090 C   0  0  0  0  0  0  0  0  0  0  0  0
   -0.0370   11.7030   18.1470 N   0  0  0  0  0  0  0  0  0  0  0  0
   -0.7300   12.1050   19.2480 C   0  0  0  0  0  0  0  0  0  0  0  0
   -0.7510   11.4250   20.4740 C   0  0  0  0  0  0  0  0  0  0  0  0
   -1.4610   11.8700   21.5610 N   0  0  0  0  0  0  0  0  0  0  0  0
   -2.5610   12.8240   21.4860 C   0  0  0  0  0  0  0  0  0  0  0  0
   -3.3960   12.5290   22.7340 C   0  0  0  0  0  0  0  0  0  0  0  0
   -2.3860   11.9350   23.7050 C   0  0  0  0  0  0  0  0  0  0  0  0
   -1.4990   11.0940   22.7930 C   0  0  0  0  0  0  0  0  0  0  0  0
   -0.0220   10.2930   20.6090 N   0  0  0  0  0  0  0  0  0  0  0  0
    1.2370   10.2250   17.4470 H   0  0  0  0  0  0  0  0  0  0  0  0
   -1.2790   13.0300   19.1090 H   0  0  0  0  0  0  0  0  0  0  0  0
   -3.1760   12.7000   20.5880 H   0  0  0  0  0  0  0  0  0  0  0  0
   -2.1690   13.8460   21.5160 H   0  0  0  0  0  0  0  0  0  0  0  0
   -4.1670   11.7860   22.4990 H   0  0  0  0  0  0  0  0  0  0  0  0
   -3.8910   13.4200   23.1260 H   0  0  0  0  0  0  0  0  0  0  0  0
   -1.8000   12.7350   24.1710 H   0  0  0  0  0  0  0  0  0  0  0  0
   -2.8550   11.3430   24.4970 H   0  0  0  0  0  0  0  0  0  0  0  0
   -1.9560   10.1120   22.6180 H   0  0  0  0  0  0  0  0  0  0  0  0
   -0.5050   10.9570   23.2330 H   0  0  0  0  0  0  0  0  0  0  0  0
    3.2710    4.6350   18.3760 C   0  0  0  0  0  0  0  0  0  0  0  0
    4.4630    4.8640   17.6700 C   0  0  0  0  0  0  0  0  0  0  0  0
    4.8090    6.1490   17.2460 C   0  0  0  0  0  0  0  0  0  0  0  0
    3.9700    7.2280   17.5190 C   0  0  0  0  0  0  0  0  0  0  0  0
    2.7770    7.0370   18.2160 C   0  0  0  0  0  0  0  0  0  0  0  0
    2.4360    5.7460   18.6340 C   0  0  0  0  0  0  0  0  0  0  0  0
    5.1500    4.0550   17.4360 H   0  0  0  0  0  0  0  0  0  0  0  0
    5.7380    6.3080   16.7040 H   0  0  0  0  0  0  0  0  0  0  0  0
    4.2640    8.2180   17.1800 H   0  0  0  0  0  0  0  0  0  0  0  0
    1.5060    5.5840   19.1710 H   0  0  0  0  0  0  0  0  0  0  0  0
    2.8550    3.2460   18.8500 C   0  0  2  0  0  0  0  0  0  0  0  0
    1.6230    3.3140   19.6160 N   0  0  0  0  0  0  0  0  0  0  0  0
    1.7810    2.8760   20.9080 C   0  0  0  0  0  0  0  0  0  0  0  0
    0.9090    2.8820   21.7570 O   0  0  0  0  0  0  0  0  0  0  0  0
    3.0560    2.4590   21.0720 N   0  0  0  0  0  0  0  0  0  0  0  0
    3.7910    2.6800   19.9460 C   0  0  0  0  0  0  0  0  0  0  0  0
    4.9850    2.4410   19.8370 O   0  0  0  0  0  0  0  0  0  0  0  0
    0.7730    3.7740   19.3190 H   0  0  0  0  0  0  0  0  0  0  0  0
    3.4340    2.1400   21.9470 H   0  0  0  0  0  0  0  0  0  0  0  0
    2.7100    2.1710   17.7660 C   0  0  0  0  0  0  0  0  0  0  0  0
    3.6880    1.8100   17.4260 H   0  0  0  0  0  0  0  0  0  0  0  0
    2.1880    2.5600   16.8830 H   0  0  0  0  0  0  0  0  0  0  0  0
    2.1300    1.3130   18.1260 H   0  0  0  0  0  0  0  0  0  0  0  0
  1  2  1  0  0  0  0
  2  3  2  0  0  0  0
  4  1  1  0  0  0  0
  5  2  1  0  0  0  0
  5 15  1  0  0  0  0
  6  5  2  0  0  0  0
  7  6  1  0  0  0  0
  7  8  2  0  0  0  0
  8  9  1  0  0  0  0
  9 15  2  0  0  0  0
  9 10  1  0  0  0  0
 10 14  1  0  0  0  0
 11 19  1  0  0  0  0
 11 10  1  0  0  0  0
 11 12  1  0  0  0  0
 12 21  1  0  0  0  0
 12 13  1  0  0  0  0
 13 22  1  0  0  0  0
 13 23  1  0  0  0  0
 14 25  1  0  0  0  0
 14 13  1  0  0  0  0
 16  6  1  0  0  0  0
 17  8  1  0  0  0  0
 18 11  1  0  0  0  0
 20 12  1  0  0  0  0
 24 14  1  0  0  0  0
 26 31  1  0  0  0  0
 26 36  1  0  0  0  0
 27 26  2  0  0  0  0
 28 29  2  0  0  0  0
 28 27  1  0  0  0  0
 29 30  1  0  0  0  0
 30  1  1  0  0  0  0
 30 31  2  0  0  0  0
 31 35  1  0  0  0  0
 32 27  1  0  0  0  0
 33 28  1  0  0  0  0
 34 29  1  0  0  0  0
 36 45  1  6  0  0  0
 36 37  1  0  0  0  0
 36 41  1  0  0  0  0
 37 38  1  0  0  0  0
 38 40  1  0  0  0  0
 38 39  2  0  0  0  0
 40 44  1  0  0  0  0
 41 40  1  0  0  0  0
 42 41  2  0  0  0  0
 43 37  1  0  0  0  0
 45 48  1  0  0  0  0
 46 45  1  0  0  0  0
 47 45  1  0  0  0  0
M  END
>  <MODEL>
16

>  <REMARK>
 VINA RESULT:    -7.998      2.858      4.383
 INTER + INTRA:          -9.946
 INTER:                  -9.435
 INTRA:                  -0.510
 UNBOUND:                -0.312
  Name = 
  4 active torsions:
  status: ('A' for Active; 'I' for Inactive)
    1  A    between atoms: C_1  and  C_2
    2  A    between atoms: C_2  and  C_3
    3  A    between atoms: C_7  and  N_8
    4  A    between atoms: C_9  and  C_11
                            x       y       z     vdW  Elec       q    Type
                         _______ _______ _______ _____ _____    ______ ____

>  <TORSDO>
F 4

$$$$
=
 OpenBabel07192307433D

 48 51  0  0  1  0  0  0  0  0999 V2000
    1.4980    7.8660   19.7020 N   0  0  0  0  0  0  0  0  0  0  0  0
    1.2720    8.6740   20.8010 C   0  0  0  0  0  0  0  0  0  0  0  0
    1.7460    8.5530   21.9230 O   0  0  0  0  0  0  0  0  0  0  0  0
    1.0000    8.1610   18.8640 H   0  0  0  0  0  0  0  0  0  0  0  0
    0.3380    9.7980   20.5060 C   0  0  0  0  0  0  0  0  0  0  0  0
    0.2660   10.8870   21.3540 C   0  0  0  0  0  0  0  0  0  0  0  0
   -0.5750   11.9160   21.1150 N   0  0  0  0  0  0  0  0  0  0  0  0
   -1.3280   11.7890   19.9880 C   0  0  0  0  0  0  0  0  0  0  0  0
   -1.2680   10.7030   19.1030 C   0  0  0  0  0  0  0  0  0  0  0  0
   -2.0510   10.6130   17.9790 N   0  0  0  0  0  0  0  0  0  0  0  0
   -2.7160   11.7480   17.3510 C   0  0  0  0  0  0  0  0  0  0  0  0
   -2.8980   11.3140   15.8960 C   0  0  0  0  0  0  0  0  0  0  0  0
   -2.9380    9.7960   15.9790 C   0  0  0  0  0  0  0  0  0  0  0  0
   -1.9060    9.4920   17.0600 C   0  0  0  0  0  0  0  0  0  0  0  0
   -0.4220    9.6820   19.3740 N   0  0  0  0  0  0  0  0  0  0  0  0
    0.8760   10.9630   22.2480 H   0  0  0  0  0  0  0  0  0  0  0  0
   -2.0130   12.6130   19.8200 H   0  0  0  0  0  0  0  0  0  0  0  0
   -2.1250   12.6700   17.3950 H   0  0  0  0  0  0  0  0  0  0  0  0
   -3.6870   11.9190   17.8290 H   0  0  0  0  0  0  0  0  0  0  0  0
   -2.0330   11.6310   15.3010 H   0  0  0  0  0  0  0  0  0  0  0  0
   -3.7960   11.7400   15.4420 H   0  0  0  0  0  0  0  0  0  0  0  0
   -3.9320    9.4650   16.3000 H   0  0  0  0  0  0  0  0  0  0  0  0
   -2.7040    9.3110   15.0260 H   0  0  0  0  0  0  0  0  0  0  0  0
   -0.8970    9.4740   16.6280 H   0  0  0  0  0  0  0  0  0  0  0  0
   -2.1130    8.5280   17.5380 H   0  0  0  0  0  0  0  0  0  0  0  0
    4.2220    5.4690   18.7000 C   0  0  0  0  0  0  0  0  0  0  0  0
    3.8590    4.3880   19.5190 C   0  0  0  0  0  0  0  0  0  0  0  0
    2.7500    4.4690   20.3630 C   0  0  0  0  0  0  0  0  0  0  0  0
    1.9840    5.6330   20.4060 C   0  0  0  0  0  0  0  0  0  0  0  0
    2.3170    6.7270   19.6070 C   0  0  0  0  0  0  0  0  0  0  0  0
    3.4320    6.6390   18.7670 C   0  0  0  0  0  0  0  0  0  0  0  0
    4.4240    3.4590   19.5180 H   0  0  0  0  0  0  0  0  0  0  0  0
    2.4820    3.6200   20.9880 H   0  0  0  0  0  0  0  0  0  0  0  0
    1.1250    5.6690   21.0700 H   0  0  0  0  0  0  0  0  0  0  0  0
    3.7040    7.4870   18.1470 H   0  0  0  0  0  0  0  0  0  0  0  0
    5.4300    5.4200   17.7690 C   0  0  2  0  0  0  0  0  0  0  0  0
    6.6590    5.6380   18.5130 N   0  0  0  0  0  0  0  0  0  0  0  0
    7.3370    6.7560   18.0950 C   0  0  0  0  0  0  0  0  0  0  0  0
    8.3650    7.1750   18.5940 O   0  0  0  0  0  0  0  0  0  0  0  0
    6.6660    7.3100   17.0600 N   0  0  0  0  0  0  0  0  0  0  0  0
    5.5040    6.6400   16.8180 C   0  0  0  0  0  0  0  0  0  0  0  0
    4.6830    6.9570   15.9690 O   0  0  0  0  0  0  0  0  0  0  0  0
    6.9310    5.1430   19.3510 H   0  0  0  0  0  0  0  0  0  0  0  0
    6.9350    8.1680   16.6110 H   0  0  0  0  0  0  0  0  0  0  0  0
    5.5820    4.1570   16.9130 C   0  0  0  0  0  0  0  0  0  0  0  0
    4.6830    3.9690   16.3140 H   0  0  0  0  0  0  0  0  0  0  0  0
    5.7430    3.2680   17.5360 H   0  0  0  0  0  0  0  0  0  0  0  0
    6.4400    4.2320   16.2360 H   0  0  0  0  0  0  0  0  0  0  0  0
  1  2  1  0  0  0  0
  2  3  2  0  0  0  0
  4  1  1  0  0  0  0
  5  2  1  0  0  0  0
  5  6  1  0  0  0  0
  6 16  1  0  0  0  0
  7  6  2  0  0  0  0
  8  7  1  0  0  0  0
  9 15  1  0  0  0  0
  9  8  2  0  0  0  0
 10  9  1  0  0  0  0
 11 18  1  0  0  0  0
 11 19  1  0  0  0  0
 11 10  1  0  0  0  0
 12 13  1  0  0  0  0
 12 11  1  0  0  0  0
 13 22  1  0  0  0  0
 13 14  1  0  0  0  0
 14 25  1  0  0  0  0
 14 10  1  0  0  0  0
 15  5  2  0  0  0  0
 17  8  1  0  0  0  0
 20 12  1  0  0  0  0
 21 12  1  0  0  0  0
 23 13  1  0  0  0  0
 24 14  1  0  0  0  0
 26 31  2  0  0  0  0
 26 27  1  0  0  0  0
 27 28  2  0  0  0  0
 28 29  1  0  0  0  0
 28 33  1  0  0  0  0
 29 34  1  0  0  0  0
 30  1  1  0  0  0  0
 30 29  2  0  0  0  0
 31 30  1  0  0  0  0
 32 27  1  0  0  0  0
 35 31  1  0  0  0  0
 36 45  1  6  0  0  0
 36 37  1  0  0  0  0
 36 26  1  0  0  0  0
 37 43  1  0  0  0  0
 38 37  1  0  0  0  0
 38 39  2  0  0  0  0
 40 38  1  0  0  0  0
 41 40  1  0  0  0  0
 41 36  1  0  0  0  0
 42 41  2  0  0  0  0
 44 40  1  0  0  0  0
 45 47  1  0  0  0  0
 46 45  1  0  0  0  0
 48 45  1  0  0  0  0
M  END
>  <MODEL>
17

>  <REMARK>
 VINA RESULT:    -7.978      2.672      3.547
 INTER + INTRA:          -9.922
 INTER:                  -9.487
 INTRA:                  -0.435
 UNBOUND:                -0.312
  Name = 
  4 active torsions:
  status: ('A' for Active; 'I' for Inactive)
    1  A    between atoms: C_1  and  C_2
    2  A    between atoms: C_2  and  C_3
    3  A    between atoms: C_7  and  N_8
    4  A    between atoms: C_9  and  C_11
                            x       y       z     vdW  Elec       q    Type
                         _______ _______ _______ _____ _____    ______ ____

>  <TORSDO>
F 4

$$$$
=
 OpenBabel07192307433D

 48 51  0  0  1  0  0  0  0  0999 V2000
    1.6030    8.3280   18.9110 N   0  0  0  0  0  0  0  0  0  0  0  0
    1.2800    8.8570   20.1470 C   0  0  0  0  0  0  0  0  0  0  0  0
    1.6270    8.4440   21.2460 O   0  0  0  0  0  0  0  0  0  0  0  0
    1.2060    8.8420   18.1270 H   0  0  0  0  0  0  0  0  0  0  0  0
    0.4120   10.0650   20.0470 C   0  0  0  0  0  0  0  0  0  0  0  0
    0.7740   11.2400   20.6800 C   0  0  0  0  0  0  0  0  0  0  0  0
    0.0030   12.3470   20.6110 N   0  0  0  0  0  0  0  0  0  0  0  0
   -1.1350   12.2060   19.8780 C   0  0  0  0  0  0  0  0  0  0  0  0
   -1.5220   11.0320   19.2150 C   0  0  0  0  0  0  0  0  0  0  0  0
   -2.6830   10.9330   18.4900 N   0  0  0  0  0  0  0  0  0  0  0  0
   -3.4320   12.0770   17.9840 C   0  0  0  0  0  0  0  0  0  0  0  0
   -4.2020   11.5170   16.7860 C   0  0  0  0  0  0  0  0  0  0  0  0
   -4.3450   10.0390   17.1150 C   0  0  0  0  0  0  0  0  0  0  0  0
   -3.0070    9.7090   17.7700 C   0  0  0  0  0  0  0  0  0  0  0  0
   -0.7330    9.9360   19.3100 N   0  0  0  0  0  0  0  0  0  0  0  0
    1.6860   11.3250   21.2600 H   0  0  0  0  0  0  0  0  0  0  0  0
   -1.7540   13.0970   19.8490 H   0  0  0  0  0  0  0  0  0  0  0  0
   -2.7890   12.9030   17.6610 H   0  0  0  0  0  0  0  0  0  0  0  0
   -4.1230   12.4380   18.7530 H   0  0  0  0  0  0  0  0  0  0  0  0
   -3.6090   11.6390   15.8720 H   0  0  0  0  0  0  0  0  0  0  0  0
   -5.1620   12.0150   16.6370 H   0  0  0  0  0  0  0  0  0  0  0  0
   -5.1630    9.8920   17.8290 H   0  0  0  0  0  0  0  0  0  0  0  0
   -4.5420    9.4230   16.2310 H   0  0  0  0  0  0  0  0  0  0  0  0
   -2.2500    9.4990   17.0040 H   0  0  0  0  0  0  0  0  0  0  0  0
   -3.1010    8.8440   18.4350 H   0  0  0  0  0  0  0  0  0  0  0  0
    2.9900    4.8300   18.8170 C   0  0  0  0  0  0  0  0  0  0  0  0
    4.0760    5.0600   17.9570 C   0  0  0  0  0  0  0  0  0  0  0  0
    4.3230    6.3330   17.4400 C   0  0  0  0  0  0  0  0  0  0  0  0
    3.4880    7.3990   17.7700 C   0  0  0  0  0  0  0  0  0  0  0  0
    2.3990    7.2060   18.6200 C   0  0  0  0  0  0  0  0  0  0  0  0
    2.1570    5.9270   19.1310 C   0  0  0  0  0  0  0  0  0  0  0  0
    4.7560    4.2610   17.6730 H   0  0  0  0  0  0  0  0  0  0  0  0
    5.1710    6.4930   16.7770 H   0  0  0  0  0  0  0  0  0  0  0  0
    3.7050    8.3800   17.3550 H   0  0  0  0  0  0  0  0  0  0  0  0
    1.3080    5.7640   19.7880 H   0  0  0  0  0  0  0  0  0  0  0  0
    2.6840    3.4520   19.3980 C   0  0  2  0  0  0  0  0  0  0  0  0
    3.6740    3.0860   20.3950 N   0  0  0  0  0  0  0  0  0  0  0  0
    4.3680    1.9510   20.0560 C   0  0  0  0  0  0  0  0  0  0  0  0
    5.2800    1.4710   20.7050 O   0  0  0  0  0  0  0  0  0  0  0  0
    3.8800    1.4750   18.8890 N   0  0  0  0  0  0  0  0  0  0  0  0
    2.9250    2.3070   18.3840 C   0  0  0  0  0  0  0  0  0  0  0  0
    2.3530    2.1410   17.3170 O   0  0  0  0  0  0  0  0  0  0  0  0
    3.9600    3.6610   21.1750 H   0  0  0  0  0  0  0  0  0  0  0  0
    4.2560    0.6780   18.4060 H   0  0  0  0  0  0  0  0  0  0  0  0
    1.2830    3.2580   19.9890 C   0  0  0  0  0  0  0  0  0  0  0  0
    0.5180    3.7550   19.3800 H   0  0  0  0  0  0  0  0  0  0  0  0
    1.2120    3.6820   20.9990 H   0  0  0  0  0  0  0  0  0  0  0  0
    1.0250    2.1960   20.0710 H   0  0  0  0  0  0  0  0  0  0  0  0
  1  2  1  0  0  0  0
  2  3  2  0  0  0  0
  4  1  1  0  0  0  0
  5  2  1  0  0  0  0
  5  6  1  0  0  0  0
  6 16  1  0  0  0  0
  7  6  2  0  0  0  0
  8  7  1  0  0  0  0
  9 15  1  0  0  0  0
  9  8  2  0  0  0  0
 10  9  1  0  0  0  0
 11 10  1  0  0  0  0
 11 19  1  0  0  0  0
 12 13  1  0  0  0  0
 12 11  1  0  0  0  0
 13 14  1  0  0  0  0
 13 22  1  0  0  0  0
 14 25  1  0  0  0  0
 14 10  1  0  0  0  0
 15  5  2  0  0  0  0
 17  8  1  0  0  0  0
 18 11  1  0  0  0  0
 20 12  1  0  0  0  0
 21 12  1  0  0  0  0
 23 13  1  0  0  0  0
 24 14  1  0  0  0  0
 26 31  1  0  0  0  0
 26 36  1  0  0  0  0
 27 26  2  0  0  0  0
 28 29  2  0  0  0  0
 28 27  1  0  0  0  0
 29 30  1  0  0  0  0
 30  1  1  0  0  0  0
 30 31  2  0  0  0  0
 31 35  1  0  0  0  0
 32 27  1  0  0  0  0
 33 28  1  0  0  0  0
 34 29  1  0  0  0  0
 36 45  1  1  0  0  0
 36 37  1  0  0  0  0
 37 43  1  0  0  0  0
 38 37  1  0  0  0  0
 38 39  2  0  0  0  0
 40 38  1  0  0  0  0
 41 40  1  0  0  0  0
 41 36  1  0  0  0  0
 42 41  2  0  0  0  0
 44 40  1  0  0  0  0
 45 48  1  0  0  0  0
 45 47  1  0  0  0  0
 46 45  1  0  0  0  0
M  END
>  <MODEL>
18

>  <REMARK>
 VINA RESULT:    -7.948      3.218      4.500
 INTER + INTRA:          -9.886
 INTER:                  -9.307
 INTRA:                  -0.579
 UNBOUND:                -0.312
  Name = 
  4 active torsions:
  status: ('A' for Active; 'I' for Inactive)
    1  A    between atoms: C_1  and  C_2
    2  A    between atoms: C_2  and  C_3
    3  A    between atoms: C_7  and  N_8
    4  A    between atoms: C_9  and  C_11
                            x       y       z     vdW  Elec       q    Type
                         _______ _______ _______ _____ _____    ______ ____

>  <TORSDO>
F 4

$$$$
=
 OpenBabel07192307433D

 48 51  0  0  1  0  0  0  0  0999 V2000
    1.8930    7.0900   18.5620 N   0  0  0  0  0  0  0  0  0  0  0  0
    1.9970    8.4180   18.1920 C   0  0  0  0  0  0  0  0  0  0  0  0
    2.8050    8.9120   17.4160 O   0  0  0  0  0  0  0  0  0  0  0  0
    1.1380    6.9030   19.2190 H   0  0  0  0  0  0  0  0  0  0  0  0
    0.9760    9.2810   18.8520 C   0  0  0  0  0  0  0  0  0  0  0  0
    1.2330    9.8470   20.0870 C   0  0  0  0  0  0  0  0  0  0  0  0
    0.3250   10.6280   20.7100 N   0  0  0  0  0  0  0  0  0  0  0  0
   -0.8390   10.8050   20.0280 C   0  0  0  0  0  0  0  0  0  0  0  0
   -1.1240   10.2560   18.7700 C   0  0  0  0  0  0  0  0  0  0  0  0
   -2.3150   10.4570   18.1200 N   0  0  0  0  0  0  0  0  0  0  0  0
   -3.2420   11.5410   18.4250 C   0  0  0  0  0  0  0  0  0  0  0  0
   -4.0240   11.7380   17.1260 C   0  0  0  0  0  0  0  0  0  0  0  0
   -3.9520   10.3740   16.4550 C   0  0  0  0  0  0  0  0  0  0  0  0
   -2.5360    9.9130   16.7870 C   0  0  0  0  0  0  0  0  0  0  0  0
   -0.1970    9.4690   18.1740 N   0  0  0  0  0  0  0  0  0  0  0  0
    2.1700    9.6870   20.6110 H   0  0  0  0  0  0  0  0  0  0  0  0
   -1.5670   11.4180   20.5500 H   0  0  0  0  0  0  0  0  0  0  0  0
   -2.7370   12.4730   18.7020 H   0  0  0  0  0  0  0  0  0  0  0  0
   -3.9110   11.2390   19.2380 H   0  0  0  0  0  0  0  0  0  0  0  0
   -3.5250   12.4870   16.4990 H   0  0  0  0  0  0  0  0  0  0  0  0
   -5.0500   12.0720   17.3020 H   0  0  0  0  0  0  0  0  0  0  0  0
   -4.6870    9.6970   16.9050 H   0  0  0  0  0  0  0  0  0  0  0  0
   -4.1370   10.4190   15.3780 H   0  0  0  0  0  0  0  0  0  0  0  0
   -1.8200   10.3380   16.0720 H   0  0  0  0  0  0  0  0  0  0  0  0
   -2.4660    8.8200   16.7630 H   0  0  0  0  0  0  0  0  0  0  0  0
    4.8080    4.9340   17.5490 C   0  0  0  0  0  0  0  0  0  0  0  0
    4.1070    3.7460   17.2860 C   0  0  0  0  0  0  0  0  0  0  0  0
    2.7210    3.6830   17.4430 C   0  0  0  0  0  0  0  0  0  0  0  0
    2.0100    4.8040   17.8680 C   0  0  0  0  0  0  0  0  0  0  0  0
    2.6750    6.0000   18.1400 C   0  0  0  0  0  0  0  0  0  0  0  0
    4.0640    6.0540   17.9840 C   0  0  0  0  0  0  0  0  0  0  0  0
    4.6170    2.8470   16.9510 H   0  0  0  0  0  0  0  0  0  0  0  0
    2.1940    2.7550   17.2310 H   0  0  0  0  0  0  0  0  0  0  0  0
    0.9320    4.7280   17.9790 H   0  0  0  0  0  0  0  0  0  0  0  0
    4.5920    6.9770   18.2000 H   0  0  0  0  0  0  0  0  0  0  0  0
    6.3220    5.0410   17.3960 C   0  0  2  0  0  0  0  0  0  0  0  0
    6.9940    4.5320   18.5780 N   0  0  0  0  0  0  0  0  0  0  0  0
    7.7520    5.4880   19.2070 C   0  0  0  0  0  0  0  0  0  0  0  0
    8.3700    5.3190   20.2420 O   0  0  0  0  0  0  0  0  0  0  0  0
    7.6830    6.6350   18.4950 N   0  0  0  0  0  0  0  0  0  0  0  0
    6.8280    6.5040   17.4410 C   0  0  0  0  0  0  0  0  0  0  0  0
    6.5430    7.4020   16.6620 O   0  0  0  0  0  0  0  0  0  0  0  0
    6.8190    3.6340   19.0100 H   0  0  0  0  0  0  0  0  0  0  0  0
    8.1130    7.4980   18.7770 H   0  0  0  0  0  0  0  0  0  0  0  0
    6.9300    4.3800   16.1520 C   0  0  0  0  0  0  0  0  0  0  0  0
    7.0410    3.2980   16.2880 H   0  0  0  0  0  0  0  0  0  0  0  0
    7.9280    4.7790   15.9340 H   0  0  0  0  0  0  0  0  0  0  0  0
    6.3140    4.5570   15.2630 H   0  0  0  0  0  0  0  0  0  0  0  0
  1  4  1  0  0  0  0
  2  1  1  0  0  0  0
  2  5  1  0  0  0  0
  3  2  2  0  0  0  0
  5  6  1  0  0  0  0
  6 16  1  0  0  0  0
  6  7  2  0  0  0  0
  8 17  1  0  0  0  0
  8  7  1  0  0  0  0
  9  8  2  0  0  0  0
 10 11  1  0  0  0  0
 10  9  1  0  0  0  0
 11 18  1  0  0  0  0
 11 19  1  0  0  0  0
 12 21  1  0  0  0  0
 12 11  1  0  0  0  0
 13 14  1  0  0  0  0
 13 22  1  0  0  0  0
 13 12  1  0  0  0  0
 14 10  1  0  0  0  0
 15  9  1  0  0  0  0
 15  5  2  0  0  0  0
 20 12  1  0  0  0  0
 23 13  1  0  0  0  0
 24 14  1  0  0  0  0
 25 14  1  0  0  0  0
 26 31  1  0  0  0  0
 27 28  1  0  0  0  0
 27 26  2  0  0  0  0
 28 29  2  0  0  0  0
 29 34  1  0  0  0  0
 29 30  1  0  0  0  0
 30  1  1  0  0  0  0
 31 30  2  0  0  0  0
 31 35  1  0  0  0  0
 32 27  1  0  0  0  0
 33 28  1  0  0  0  0
 36 45  1  6  0  0  0
 36 41  1  0  0  0  0
 36 26  1  0  0  0  0
 36 37  1  0  0  0  0
 37 43  1  0  0  0  0
 37 38  1  0  0  0  0
 38 39  2  0  0  0  0
 40 44  1  0  0  0  0
 40 38  1  0  0  0  0
 41 40  1  0  0  0  0
 42 41  2  0  0  0  0
 45 46  1  0  0  0  0
 47 45  1  0  0  0  0
 48 45  1  0  0  0  0
M  END
>  <MODEL>
19

>  <REMARK>
 VINA RESULT:    -7.911      2.599      3.339
 INTER + INTRA:          -9.841
 INTER:                  -9.527
 INTRA:                  -0.314
 UNBOUND:                -0.312
  Name = 
  4 active torsions:
  status: ('A' for Active; 'I' for Inactive)
    1  A    between atoms: C_1  and  C_2
    2  A    between atoms: C_2  and  C_3
    3  A    between atoms: C_7  and  N_8
    4  A    between atoms: C_9  and  C_11
                            x       y       z     vdW  Elec       q    Type
                         _______ _______ _______ _____ _____    ______ ____

>  <TORSDO>
F 4

$$$$
=
 OpenBabel07192307433D

 48 51  0  0  1  0  0  0  0  0999 V2000
    1.9230    7.9270   19.8070 N   0  0  0  0  0  0  0  0  0  0  0  0
    1.1530    9.0510   19.5730 C   0  0  0  0  0  0  0  0  0  0  0  0
    0.9690    9.6170   18.5030 O   0  0  0  0  0  0  0  0  0  0  0  0
    1.9260    7.6250   20.7790 H   0  0  0  0  0  0  0  0  0  0  0  0
    0.5040    9.5720   20.8100 C   0  0  0  0  0  0  0  0  0  0  0  0
    0.8050    9.0200   22.0420 C   0  0  0  0  0  0  0  0  0  0  0  0
    0.2280    9.4680   23.1780 N   0  0  0  0  0  0  0  0  0  0  0  0
   -0.6540   10.4900   23.0060 C   0  0  0  0  0  0  0  0  0  0  0  0
   -0.9700   11.0780   21.7720 C   0  0  0  0  0  0  0  0  0  0  0  0
   -1.8710   12.1050   21.6440 N   0  0  0  0  0  0  0  0  0  0  0  0
   -2.2960   12.9640   22.7430 C   0  0  0  0  0  0  0  0  0  0  0  0
   -2.7430   14.2540   22.0550 C   0  0  0  0  0  0  0  0  0  0  0  0
   -3.1540   13.7930   20.6650 C   0  0  0  0  0  0  0  0  0  0  0  0
   -2.1170   12.7210   20.3470 C   0  0  0  0  0  0  0  0  0  0  0  0
   -0.3820   10.6010   20.6500 N   0  0  0  0  0  0  0  0  0  0  0  0
    1.5110    8.2040   22.1510 H   0  0  0  0  0  0  0  0  0  0  0  0
   -1.1250   10.8260   23.9240 H   0  0  0  0  0  0  0  0  0  0  0  0
   -1.4910   13.1800   23.4550 H   0  0  0  0  0  0  0  0  0  0  0  0
   -3.1320   12.4980   23.2750 H   0  0  0  0  0  0  0  0  0  0  0  0
   -1.8990   14.9500   21.9810 H   0  0  0  0  0  0  0  0  0  0  0  0
   -3.5510   14.7570   22.5930 H   0  0  0  0  0  0  0  0  0  0  0  0
   -4.1570   13.3520   20.6980 H   0  0  0  0  0  0  0  0  0  0  0  0
   -3.1580   14.6040   19.9300 H   0  0  0  0  0  0  0  0  0  0  0  0
   -1.2010   13.1820   19.9580 H   0  0  0  0  0  0  0  0  0  0  0  0
   -2.5040   12.0080   19.6110 H   0  0  0  0  0  0  0  0  0  0  0  0
    3.3960    5.0560   17.8670 C   0  0  0  0  0  0  0  0  0  0  0  0
    4.2170    5.7920   16.9990 C   0  0  0  0  0  0  0  0  0  0  0  0
    4.2680    7.1860   17.0690 C   0  0  0  0  0  0  0  0  0  0  0  0
    3.4980    7.8700   18.0080 C   0  0  0  0  0  0  0  0  0  0  0  0
    2.6690    7.1700   18.8860 C   0  0  0  0  0  0  0  0  0  0  0  0
    2.6210    5.7750   18.8060 C   0  0  0  0  0  0  0  0  0  0  0  0
    4.8380    5.3030   16.2520 H   0  0  0  0  0  0  0  0  0  0  0  0
    4.9130    7.7390   16.3900 H   0  0  0  0  0  0  0  0  0  0  0  0
    3.5580    8.9540   18.0430 H   0  0  0  0  0  0  0  0  0  0  0  0
    1.9740    5.2210   19.4790 H   0  0  0  0  0  0  0  0  0  0  0  0
    3.3080    3.5330   17.8170 C   0  0  2  0  0  0  0  0  0  0  0  0
    1.9410    3.1070   17.5760 N   0  0  0  0  0  0  0  0  0  0  0  0
    1.4380    2.3440   18.6000 C   0  0  0  0  0  0  0  0  0  0  0  0
    0.3020    1.9100   18.6530 O   0  0  0  0  0  0  0  0  0  0  0  0
    2.4040    2.1740   19.5300 N   0  0  0  0  0  0  0  0  0  0  0  0
    3.5270    2.8740   19.2010 C   0  0  0  0  0  0  0  0  0  0  0  0
    4.5350    2.9350   19.8900 O   0  0  0  0  0  0  0  0  0  0  0  0
    1.3450    3.4460   16.8330 H   0  0  0  0  0  0  0  0  0  0  0  0
    2.2670    1.6930   20.4010 H   0  0  0  0  0  0  0  0  0  0  0  0
    4.2350    2.8300   16.8180 C   0  0  0  0  0  0  0  0  0  0  0  0
    4.4530    1.8010   17.1300 H   0  0  0  0  0  0  0  0  0  0  0  0
    5.1980    3.3490   16.7300 H   0  0  0  0  0  0  0  0  0  0  0  0
    3.7950    2.8020   15.8140 H   0  0  0  0  0  0  0  0  0  0  0  0
  1  4  1  0  0  0  0
  2  1  1  0  0  0  0
  2  5  1  0  0  0  0
  3  2  2  0  0  0  0
  5  6  1  0  0  0  0
  6 16  1  0  0  0  0
  6  7  2  0  0  0  0
  8  7  1  0  0  0  0
  8 17  1  0  0  0  0
  9  8  2  0  0  0  0
 10  9  1  0  0  0  0
 10 11  1  0  0  0  0
 11 19  1  0  0  0  0
 11 18  1  0  0  0  0
 12 21  1  0  0  0  0
 12 11  1  0  0  0  0
 13 22  1  0  0  0  0
 13 12  1  0  0  0  0
 14 13  1  0  0  0  0
 14 10  1  0  0  0  0
 15  5  2  0  0  0  0
 15  9  1  0  0  0  0
 20 12  1  0  0  0  0
 23 13  1  0  0  0  0
 24 14  1  0  0  0  0
 25 14  1  0  0  0  0
 26 31  1  0  0  0  0
 27 28  1  0  0  0  0
 27 26  2  0  0  0  0
 28 29  2  0  0  0  0
 29 34  1  0  0  0  0
 29 30  1  0  0  0  0
 30  1  1  0  0  0  0
 31 30  2  0  0  0  0
 31 35  1  0  0  0  0
 32 27  1  0  0  0  0
 33 28  1  0  0  0  0
 36 45  1  6  0  0  0
 36 26  1  0  0  0  0
 36 41  1  0  0  0  0
 37 36  1  0  0  0  0
 37 38  1  0  0  0  0
 38 39  2  0  0  0  0
 38 40  1  0  0  0  0
 40 44  1  0  0  0  0
 41 40  1  0  0  0  0
 41 42  2  0  0  0  0
 43 37  1  0  0  0  0
 45 46  1  0  0  0  0
 47 45  1  0  0  0  0
 48 45  1  0  0  0  0
M  END
>  <MODEL>
20

>  <REMARK>
 VINA RESULT:    -7.907      2.716      3.556
 INTER + INTRA:          -9.836
 INTER:                  -9.345
 INTRA:                  -0.491
 UNBOUND:                -0.312
  Name = 
  4 active torsions:
  status: ('A' for Active; 'I' for Inactive)
    1  A    between atoms: C_1  and  C_2
    2  A    between atoms: C_2  and  C_3
    3  A    between atoms: C_7  and  N_8
    4  A    between atoms: C_9  and  C_11
                            x       y       z     vdW  Elec       q    Type
                         _______ _______ _______ _____ _____    ______ ____

>  <TORSDO>
F 4

$$$$
=
 OpenBabel07192307433D

 48 51  0  0  1  0  0  0  0  0999 V2000
    2.0180    7.9120   19.7130 N   0  0  0  0  0  0  0  0  0  0  0  0
    1.9070    8.6360   18.5410 C   0  0  0  0  0  0  0  0  0  0  0  0
    1.9560    8.2070   17.3950 O   0  0  0  0  0  0  0  0  0  0  0  0
    1.9400    8.4780   20.5560 H   0  0  0  0  0  0  0  0  0  0  0  0
    1.7040   10.0930   18.7810 C   0  0  0  0  0  0  0  0  0  0  0  0
    2.2880   11.0270   17.9450 C   0  0  0  0  0  0  0  0  0  0  0  0
    2.1260   12.3530   18.1430 N   0  0  0  0  0  0  0  0  0  0  0  0
    1.3510   12.6810   19.2130 C   0  0  0  0  0  0  0  0  0  0  0  0
    0.7350   11.7570   20.0690 C   0  0  0  0  0  0  0  0  0  0  0  0
   -0.0350   12.1330   21.1420 N   0  0  0  0  0  0  0  0  0  0  0  0
   -0.6350   13.4520   21.2970 C   0  0  0  0  0  0  0  0  0  0  0  0
   -1.8340   13.2100   22.2150 C   0  0  0  0  0  0  0  0  0  0  0  0
   -1.4340   11.9740   23.0050 C   0  0  0  0  0  0  0  0  0  0  0  0
   -0.7020   11.1330   21.9640 C   0  0  0  0  0  0  0  0  0  0  0  0
    0.9240   10.4340   19.8520 N   0  0  0  0  0  0  0  0  0  0  0  0
    2.9040   10.7390   17.1000 H   0  0  0  0  0  0  0  0  0  0  0  0
    1.2460   13.7490   19.3710 H   0  0  0  0  0  0  0  0  0  0  0  0
   -0.9720   13.8850   20.3480 H   0  0  0  0  0  0  0  0  0  0  0  0
    0.0830   14.1320   21.7680 H   0  0  0  0  0  0  0  0  0  0  0  0
   -2.7260   12.9950   21.6150 H   0  0  0  0  0  0  0  0  0  0  0  0
   -2.0530   14.0710   22.8520 H   0  0  0  0  0  0  0  0  0  0  0  0
   -0.7500   12.2530   23.8150 H   0  0  0  0  0  0  0  0  0  0  0  0
   -2.2910   11.4510   23.4410 H   0  0  0  0  0  0  0  0  0  0  0  0
   -1.4210   10.5570   21.3670 H   0  0  0  0  0  0  0  0  0  0  0  0
    0.0030   10.4450   22.4430 H   0  0  0  0  0  0  0  0  0  0  0  0
    3.4320    4.4290   19.5070 C   0  0  0  0  0  0  0  0  0  0  0  0
    2.4580    3.7640   20.2680 C   0  0  0  0  0  0  0  0  0  0  0  0
    1.3810    4.4610   20.8200 C   0  0  0  0  0  0  0  0  0  0  0  0
    1.2580    5.8350   20.6220 C   0  0  0  0  0  0  0  0  0  0  0  0
    2.2090    6.5280   19.8720 C   0  0  0  0  0  0  0  0  0  0  0  0
    3.2860    5.8240   19.3260 C   0  0  0  0  0  0  0  0  0  0  0  0
    2.5100    2.6930   20.4480 H   0  0  0  0  0  0  0  0  0  0  0  0
    0.6340    3.9280   21.4050 H   0  0  0  0  0  0  0  0  0  0  0  0
    0.4090    6.3520   21.0610 H   0  0  0  0  0  0  0  0  0  0  0  0
    4.0350    6.3540   18.7470 H   0  0  0  0  0  0  0  0  0  0  0  0
    4.6260    3.7050   18.8930 C   0  0  2  0  0  0  0  0  0  0  0  0
    5.8720    4.3050   19.3350 N   0  0  0  0  0  0  0  0  0  0  0  0
    6.6110    4.8120   18.2960 C   0  0  0  0  0  0  0  0  0  0  0  0
    7.6680    5.4060   18.4150 O   0  0  0  0  0  0  0  0  0  0  0  0
    5.9660    4.5540   17.1360 N   0  0  0  0  0  0  0  0  0  0  0  0
    4.7630    3.9560   17.3710 C   0  0  0  0  0  0  0  0  0  0  0  0
    3.9550    3.6570   16.5040 O   0  0  0  0  0  0  0  0  0  0  0  0
    6.1230    4.4930   20.2970 H   0  0  0  0  0  0  0  0  0  0  0  0
    6.2810    4.8690   16.2360 H   0  0  0  0  0  0  0  0  0  0  0  0
    4.6940    2.1890   19.1190 C   0  0  0  0  0  0  0  0  0  0  0  0
    5.6720    1.7850   18.8290 H   0  0  0  0  0  0  0  0  0  0  0  0
    3.9400    1.6610   18.5230 H   0  0  0  0  0  0  0  0  0  0  0  0
    4.5090    1.9320   20.1680 H   0  0  0  0  0  0  0  0  0  0  0  0
  1 30  1  0  0  0  0
  1  4  1  0  0  0  0
  2  5  1  0  0  0  0
  2  1  1  0  0  0  0
  3  2  2  0  0  0  0
  5 15  1  0  0  0  0
  6  7  1  0  0  0  0
  6  5  2  0  0  0  0
  7  8  2  0  0  0  0
  8 17  1  0  0  0  0
  8  9  1  0  0  0  0
  9 10  1  0  0  0  0
 10 11  1  0  0  0  0
 10 14  1  0  0  0  0
 11 19  1  0  0  0  0
 11 12  1  0  0  0  0
 12 21  1  0  0  0  0
 12 13  1  0  0  0  0
 13 23  1  0  0  0  0
 13 22  1  0  0  0  0
 14 25  1  0  0  0  0
 14 13  1  0  0  0  0
 15  9  2  0  0  0  0
 16  6  1  0  0  0  0
 18 11  1  0  0  0  0
 20 12  1  0  0  0  0
 24 14  1  0  0  0  0
 26 27  1  0  0  0  0
 27 32  1  0  0  0  0
 27 28  2  0  0  0  0
 28 33  1  0  0  0  0
 29 28  1  0  0  0  0
 29 34  1  0  0  0  0
 30 29  2  0  0  0  0
 31 26  2  0  0  0  0
 31 30  1  0  0  0  0
 35 31  1  0  0  0  0
 36 45  1  1  0  0  0
 36 37  1  0  0  0  0
 36 26  1  0  0  0  0
 37 43  1  0  0  0  0
 38 39  2  0  0  0  0
 38 37  1  0  0  0  0
 40 41  1  0  0  0  0
 40 38  1  0  0  0  0
 41 36  1  0  0  0  0
 42 41  2  0  0  0  0
 44 40  1  0  0  0  0
 45 48  1  0  0  0  0
 46 45  1  0  0  0  0
 47 45  1  0  0  0  0
M  END
>  <MODEL>
21

>  <REMARK>
 VINA RESULT:    -7.864      1.991      3.201
 INTER + INTRA:          -9.785
 INTER:                  -9.103
 INTRA:                  -0.682
 UNBOUND:                -0.312
  Name = 
  4 active torsions:
  status: ('A' for Active; 'I' for Inactive)
    1  A    between atoms: C_1  and  C_2
    2  A    between atoms: C_2  and  C_3
    3  A    between atoms: C_7  and  N_8
    4  A    between atoms: C_9  and  C_11
                            x       y       z     vdW  Elec       q    Type
                         _______ _______ _______ _____ _____    ______ ____

>  <TORSDO>
F 4

$$$$
=
 OpenBabel07192307433D

 48 51  0  0  1  0  0  0  0  0999 V2000
    1.2170    8.9120   18.9330 N   0  0  0  0  0  0  0  0  0  0  0  0
    1.5160    8.2700   20.1210 C   0  0  0  0  0  0  0  0  0  0  0  0
    1.2880    8.6640   21.2570 O   0  0  0  0  0  0  0  0  0  0  0  0
    1.4940    8.3920   18.1030 H   0  0  0  0  0  0  0  0  0  0  0  0
    2.1870    6.9560   19.9110 C   0  0  0  0  0  0  0  0  0  0  0  0
    1.9450    5.9020   20.7730 C   0  0  0  0  0  0  0  0  0  0  0  0
    2.5440    4.7030   20.6100 N   0  0  0  0  0  0  0  0  0  0  0  0
    3.3870    4.6250   19.5440 C   0  0  0  0  0  0  0  0  0  0  0  0
    3.6430    5.6720   18.6460 C   0  0  0  0  0  0  0  0  0  0  0  0
    4.5060    5.5510   17.5860 N   0  0  0  0  0  0  0  0  0  0  0  0
    4.9390    4.2770   17.0230 C   0  0  0  0  0  0  0  0  0  0  0  0
    5.3220    4.6190   15.5820 C   0  0  0  0  0  0  0  0  0  0  0  0
    5.7020    6.0900   15.6540 C   0  0  0  0  0  0  0  0  0  0  0  0
    4.6900    6.6500   16.6480 C   0  0  0  0  0  0  0  0  0  0  0  0
    3.0350    6.8650   18.8410 N   0  0  0  0  0  0  0  0  0  0  0  0
    1.2700    5.9910   21.6170 H   0  0  0  0  0  0  0  0  0  0  0  0
    3.8760    3.6630   19.4380 H   0  0  0  0  0  0  0  0  0  0  0  0
    4.1510    3.5150   17.0300 H   0  0  0  0  0  0  0  0  0  0  0  0
    5.8060    3.9030   17.5770 H   0  0  0  0  0  0  0  0  0  0  0  0
    4.4540    4.4900   14.9250 H   0  0  0  0  0  0  0  0  0  0  0  0
    6.1300    3.9880   15.2040 H   0  0  0  0  0  0  0  0  0  0  0  0
    6.7190    6.1950   16.0490 H   0  0  0  0  0  0  0  0  0  0  0  0
    5.6550    6.5890   14.6810 H   0  0  0  0  0  0  0  0  0  0  0  0
    3.7460    6.8850   16.1380 H   0  0  0  0  0  0  0  0  0  0  0  0
    5.0750    7.5540   17.1310 H   0  0  0  0  0  0  0  0  0  0  0  0
    0.5430   12.6110   18.7330 C   0  0  0  0  0  0  0  0  0  0  0  0
   -0.8030   12.5560   18.3390 C   0  0  0  0  0  0  0  0  0  0  0  0
   -1.4460   11.3300   18.1530 C   0  0  0  0  0  0  0  0  0  0  0  0
   -0.7540   10.1370   18.3560 C   0  0  0  0  0  0  0  0  0  0  0  0
    0.5850   10.1540   18.7460 C   0  0  0  0  0  0  0  0  0  0  0  0
    1.2220   11.3860   18.9260 C   0  0  0  0  0  0  0  0  0  0  0  0
   -1.3840   13.4590   18.1720 H   0  0  0  0  0  0  0  0  0  0  0  0
   -2.4910   11.3070   17.8510 H   0  0  0  0  0  0  0  0  0  0  0  0
   -1.2790    9.1970   18.2070 H   0  0  0  0  0  0  0  0  0  0  0  0
    2.2660   11.4120   19.2220 H   0  0  0  0  0  0  0  0  0  0  0  0
    1.2820   13.9300   18.9390 C   0  0  2  0  0  0  0  0  0  0  0  0
    2.3790   14.0560   17.9960 N   0  0  0  0  0  0  0  0  0  0  0  0
    3.5990   14.1500   18.6160 C   0  0  0  0  0  0  0  0  0  0  0  0
    4.6710   14.2150   18.0410 O   0  0  0  0  0  0  0  0  0  0  0  0
    3.4090   14.1430   19.9540 N   0  0  0  0  0  0  0  0  0  0  0  0
    2.0930   13.9640   20.2580 C   0  0  0  0  0  0  0  0  0  0  0  0
    1.6480   13.8700   21.3930 O   0  0  0  0  0  0  0  0  0  0  0  0
    2.3070   13.9290   16.9950 H   0  0  0  0  0  0  0  0  0  0  0  0
    4.1550   14.1520   20.6280 H   0  0  0  0  0  0  0  0  0  0  0  0
    0.4300   15.2040   18.8880 C   0  0  0  0  0  0  0  0  0  0  0  0
    0.2020   15.5740   19.8950 H   0  0  0  0  0  0  0  0  0  0  0  0
   -0.5300   15.0240   18.3880 H   0  0  0  0  0  0  0  0  0  0  0  0
    0.9350   16.0020   18.3320 H   0  0  0  0  0  0  0  0  0  0  0  0
  1  2  1  0  0  0  0
  2  3  2  0  0  0  0
  4  1  1  0  0  0  0
  5  2  1  0  0  0  0
  5  6  1  0  0  0  0
  6 16  1  0  0  0  0
  7  6  2  0  0  0  0
  8  7  1  0  0  0  0
  9 15  1  0  0  0  0
  9  8  2  0  0  0  0
 10  9  1  0  0  0  0
 11 18  1  0  0  0  0
 11 19  1  0  0  0  0
 11 10  1  0  0  0  0
 12 13  1  0  0  0  0
 12 11  1  0  0  0  0
 13 22  1  0  0  0  0
 13 14  1  0  0  0  0
 14 25  1  0  0  0  0
 14 10  1  0  0  0  0
 15  5  2  0  0  0  0
 17  8  1  0  0  0  0
 20 12  1  0  0  0  0
 21 12  1  0  0  0  0
 23 13  1  0  0  0  0
 24 14  1  0  0  0  0
 26 31  1  0  0  0  0
 26 36  1  0  0  0  0
 27 26  2  0  0  0  0
 28 27  1  0  0  0  0
 28 29  2  0  0  0  0
 29 30  1  0  0  0  0
 30 31  2  0  0  0  0
 30  1  1  0  0  0  0
 31 35  1  0  0  0  0
 32 27  1  0  0  0  0
 33 28  1  0  0  0  0
 34 29  1  0  0  0  0
 36 45  1  6  0  0  0
 36 41  1  0  0  0  0
 37 38  1  0  0  0  0
 37 36  1  0  0  0  0
 38 40  1  0  0  0  0
 39 38  2  0  0  0  0
 40 41  1  0  0  0  0
 40 44  1  0  0  0  0
 41 42  2  0  0  0  0
 43 37  1  0  0  0  0
 45 46  1  0  0  0  0
 47 45  1  0  0  0  0
 48 45  1  0  0  0  0
M  END
>  <MODEL>
22

>  <REMARK>
 VINA RESULT:    -7.738      3.355      8.434
 INTER + INTRA:          -9.633
 INTER:                  -8.869
 INTRA:                  -0.765
 UNBOUND:                -0.312
  Name = 
  4 active torsions:
  status: ('A' for Active; 'I' for Inactive)
    1  A    between atoms: C_1  and  C_2
    2  A    between atoms: C_2  and  C_3
    3  A    between atoms: C_7  and  N_8
    4  A    between atoms: C_9  and  C_11
                            x       y       z     vdW  Elec       q    Type
                         _______ _______ _______ _____ _____    ______ ____

>  <TORSDO>
F 4

$$$$
=
 OpenBabel07192307433D

 48 51  0  0  1  0  0  0  0  0999 V2000
    1.6010    8.4380   19.8850 N   0  0  0  0  0  0  0  0  0  0  0  0
    1.9690    8.6020   18.5630 C   0  0  0  0  0  0  0  0  0  0  0  0
    1.7010    9.5450   17.8280 O   0  0  0  0  0  0  0  0  0  0  0  0
    1.9430    7.5750   20.3040 H   0  0  0  0  0  0  0  0  0  0  0  0
    2.7840    7.4660   18.0460 C   0  0  0  0  0  0  0  0  0  0  0  0
    3.9650    7.7040   17.3690 C   0  0  0  0  0  0  0  0  0  0  0  0
    4.7190    6.6930   16.8850 N   0  0  0  0  0  0  0  0  0  0  0  0
    4.2250    5.4480   17.1210 C   0  0  0  0  0  0  0  0  0  0  0  0
    3.0370    5.1750   17.8160 C   0  0  0  0  0  0  0  0  0  0  0  0
    2.5730    3.9010   18.0260 N   0  0  0  0  0  0  0  0  0  0  0  0
    3.3970    2.7020   17.9330 C   0  0  0  0  0  0  0  0  0  0  0  0
    2.6770    1.6850   18.8210 C   0  0  0  0  0  0  0  0  0  0  0  0
    1.2290    2.1500   18.7930 C   0  0  0  0  0  0  0  0  0  0  0  0
    1.3650    3.6700   18.8070 C   0  0  0  0  0  0  0  0  0  0  0  0
    2.2980    6.2090   18.2800 N   0  0  0  0  0  0  0  0  0  0  0  0
    4.3360    8.7080   17.1920 H   0  0  0  0  0  0  0  0  0  0  0  0
    4.8310    4.6470   16.7090 H   0  0  0  0  0  0  0  0  0  0  0  0
    4.4200    2.8550   18.2960 H   0  0  0  0  0  0  0  0  0  0  0  0
    3.4320    2.3550   16.8950 H   0  0  0  0  0  0  0  0  0  0  0  0
    3.0660    1.7420   19.8440 H   0  0  0  0  0  0  0  0  0  0  0  0
    2.8020    0.6590   18.4670 H   0  0  0  0  0  0  0  0  0  0  0  0
    0.7490    1.8220   17.8640 H   0  0  0  0  0  0  0  0  0  0  0  0
    0.6440    1.7730   19.6370 H   0  0  0  0  0  0  0  0  0  0  0  0
    1.4940    4.0300   19.8350 H   0  0  0  0  0  0  0  0  0  0  0  0
    0.4820    4.1450   18.3650 H   0  0  0  0  0  0  0  0  0  0  0  0
   -0.3160   11.4170   21.1590 C   0  0  0  0  0  0  0  0  0  0  0  0
   -0.6640   10.9160   22.4230 C   0  0  0  0  0  0  0  0  0  0  0  0
   -0.2680    9.6370   22.8200 C   0  0  0  0  0  0  0  0  0  0  0  0
    0.4810    8.8350   21.9600 C   0  0  0  0  0  0  0  0  0  0  0  0
    0.8430    9.3010   20.6960 C   0  0  0  0  0  0  0  0  0  0  0  0
    0.4400   10.5810   20.3050 C   0  0  0  0  0  0  0  0  0  0  0  0
   -1.2450   11.5040   23.1280 H   0  0  0  0  0  0  0  0  0  0  0  0
   -0.5440    9.2660   23.8050 H   0  0  0  0  0  0  0  0  0  0  0  0
    0.7780    7.8450   22.2960 H   0  0  0  0  0  0  0  0  0  0  0  0
    0.7090   10.9510   19.3210 H   0  0  0  0  0  0  0  0  0  0  0  0
   -0.7350   12.8070   20.6860 C   0  0  2  0  0  0  0  0  0  0  0  0
   -0.0970   13.1310   19.4220 N   0  0  0  0  0  0  0  0  0  0  0  0
    0.7130   14.2360   19.5100 C   0  0  0  0  0  0  0  0  0  0  0  0
    1.3920   14.6770   18.6000 O   0  0  0  0  0  0  0  0  0  0  0  0
    0.6380   14.7320   20.7650 N   0  0  0  0  0  0  0  0  0  0  0  0
   -0.1400   13.9410   21.5560 C   0  0  0  0  0  0  0  0  0  0  0  0
   -0.3390   14.1310   22.7470 O   0  0  0  0  0  0  0  0  0  0  0  0
   -0.0950   12.5440   18.5990 H   0  0  0  0  0  0  0  0  0  0  0  0
    1.1800   15.5120   21.0940 H   0  0  0  0  0  0  0  0  0  0  0  0
   -2.2420   13.0590   20.5640 C   0  0  0  0  0  0  0  0  0  0  0  0
   -2.6660   13.4200   21.5090 H   0  0  0  0  0  0  0  0  0  0  0  0
   -2.7830   12.1420   20.3000 H   0  0  0  0  0  0  0  0  0  0  0  0
   -2.4640   13.7950   19.7820 H   0  0  0  0  0  0  0  0  0  0  0  0
  1  4  1  0  0  0  0
  1 30  1  0  0  0  0
  2  1  1  0  0  0  0
  3  2  2  0  0  0  0
  5 15  1  0  0  0  0
  5  2  1  0  0  0  0
  6  5  2  0  0  0  0
  7  8  2  0  0  0  0
  7  6  1  0  0  0  0
  8  9  1  0  0  0  0
  9 10  1  0  0  0  0
  9 15  2  0  0  0  0
 10 14  1  0  0  0  0
 11 10  1  0  0  0  0
 11 18  1  0  0  0  0
 11 12  1  0  0  0  0
 12 20  1  0  0  0  0
 13 14  1  0  0  0  0
 13 12  1  0  0  0  0
 13 23  1  0  0  0  0
 14 24  1  0  0  0  0
 16  6  1  0  0  0  0
 17  8  1  0  0  0  0
 19 11  1  0  0  0  0
 21 12  1  0  0  0  0
 22 13  1  0  0  0  0
 25 14  1  0  0  0  0
 26 27  1  0  0  0  0
 27 28  2  0  0  0  0
 27 32  1  0  0  0  0
 28 33  1  0  0  0  0
 29 34  1  0  0  0  0
 29 28  1  0  0  0  0
 30 29  2  0  0  0  0
 31 30  1  0  0  0  0
 31 26  2  0  0  0  0
 35 31  1  0  0  0  0
 36 45  1  6  0  0  0
 36 26  1  0  0  0  0
 36 41  1  0  0  0  0
 37 38  1  0  0  0  0
 37 36  1  0  0  0  0
 38 40  1  0  0  0  0
 39 38  2  0  0  0  0
 40 44  1  0  0  0  0
 40 41  1  0  0  0  0
 41 42  2  0  0  0  0
 43 37  1  0  0  0  0
 45 46  1  0  0  0  0
 47 45  1  0  0  0  0
 48 45  1  0  0  0  0
M  END
>  <MODEL>
23

>  <REMARK>
 VINA RESULT:    -7.646      2.791      9.283
 INTER + INTRA:          -9.523
 INTER:                  -9.297
 INTRA:                  -0.225
 UNBOUND:                -0.312
  Name = 
  4 active torsions:
  status: ('A' for Active; 'I' for Inactive)
    1  A    between atoms: C_1  and  C_2
    2  A    between atoms: C_2  and  C_3
    3  A    between atoms: C_7  and  N_8
    4  A    between atoms: C_9  and  C_11
                            x       y       z     vdW  Elec       q    Type
                         _______ _______ _______ _____ _____    ______ ____

>  <TORSDO>
F 4

$$$$
=
 OpenBabel07192307433D

 48 51  0  0  1  0  0  0  0  0999 V2000
    1.3720    8.3020   19.9830 N   0  0  0  0  0  0  0  0  0  0  0  0
    1.1410    9.1470   21.0520 C   0  0  0  0  0  0  0  0  0  0  0  0
    1.4390    8.9600   22.2250 O   0  0  0  0  0  0  0  0  0  0  0  0
    1.0430    8.6680   19.0910 H   0  0  0  0  0  0  0  0  0  0  0  0
    0.4520   10.4070   20.6520 C   0  0  0  0  0  0  0  0  0  0  0  0
    0.7760   11.0330   19.4620 C   0  0  0  0  0  0  0  0  0  0  0  0
    0.1720   12.1780   19.0780 N   0  0  0  0  0  0  0  0  0  0  0  0
   -0.7640   12.6490   19.9470 C   0  0  0  0  0  0  0  0  0  0  0  0
   -1.1230   12.0300   21.1530 C   0  0  0  0  0  0  0  0  0  0  0  0
   -2.0700   12.5450   22.0020 N   0  0  0  0  0  0  0  0  0  0  0  0
   -3.0790   13.5210   21.6090 C   0  0  0  0  0  0  0  0  0  0  0  0
   -4.2140   13.3060   22.6120 C   0  0  0  0  0  0  0  0  0  0  0  0
   -3.5080   12.7360   23.8320 C   0  0  0  0  0  0  0  0  0  0  0  0
   -2.4480   11.8300   23.2140 C   0  0  0  0  0  0  0  0  0  0  0  0
   -0.4930   10.8890   21.5160 N   0  0  0  0  0  0  0  0  0  0  0  0
    1.5280   10.6370   18.7890 H   0  0  0  0  0  0  0  0  0  0  0  0
   -1.2260   13.5800   19.6350 H   0  0  0  0  0  0  0  0  0  0  0  0
   -3.4490   13.3690   20.5890 H   0  0  0  0  0  0  0  0  0  0  0  0
   -2.6710   14.5330   21.6970 H   0  0  0  0  0  0  0  0  0  0  0  0
   -4.9270   12.5720   22.2180 H   0  0  0  0  0  0  0  0  0  0  0  0
   -4.7610   14.2280   22.8270 H   0  0  0  0  0  0  0  0  0  0  0  0
   -3.0320   13.5430   24.4010 H   0  0  0  0  0  0  0  0  0  0  0  0
   -4.1850   12.1950   24.5020 H   0  0  0  0  0  0  0  0  0  0  0  0
   -2.8810   10.8520   22.9670 H   0  0  0  0  0  0  0  0  0  0  0  0
   -1.6050   11.6910   23.8990 H   0  0  0  0  0  0  0  0  0  0  0  0
    3.7020    5.4440   19.2240 C   0  0  0  0  0  0  0  0  0  0  0  0
    3.1370    4.4840   20.0790 C   0  0  0  0  0  0  0  0  0  0  0  0
    2.0270    4.7910   20.8680 C   0  0  0  0  0  0  0  0  0  0  0  0
    1.4610    6.0630   20.8180 C   0  0  0  0  0  0  0  0  0  0  0  0
    1.9970    7.0430   19.9820 C   0  0  0  0  0  0  0  0  0  0  0  0
    3.1110    6.7280   19.1980 C   0  0  0  0  0  0  0  0  0  0  0  0
    3.5420    3.4770   20.1500 H   0  0  0  0  0  0  0  0  0  0  0  0
    1.6010    4.0320   21.5220 H   0  0  0  0  0  0  0  0  0  0  0  0
    0.5950    6.2750   21.4410 H   0  0  0  0  0  0  0  0  0  0  0  0
    3.5410    7.4840   18.5480 H   0  0  0  0  0  0  0  0  0  0  0  0
    4.9180    5.1490   18.3520 C   0  0  2  0  0  0  0  0  0  0  0  0
    5.1680    6.2460   17.4340 N   0  0  0  0  0  0  0  0  0  0  0  0
    5.0810    5.8640   16.1190 C   0  0  0  0  0  0  0  0  0  0  0  0
    5.2020    6.6110   15.1650 O   0  0  0  0  0  0  0  0  0  0  0  0
    4.8270    4.5370   16.0680 N   0  0  0  0  0  0  0  0  0  0  0  0
    4.6580    4.0240   17.3200 C   0  0  0  0  0  0  0  0  0  0  0  0
    4.3710    2.8610   17.5610 O   0  0  0  0  0  0  0  0  0  0  0  0
    5.2390    7.2210   17.6930 H   0  0  0  0  0  0  0  0  0  0  0  0
    4.6700    4.0270   15.2160 H   0  0  0  0  0  0  0  0  0  0  0  0
    6.2190    4.8080   19.0890 C   0  0  0  0  0  0  0  0  0  0  0  0
    6.0230    4.2260   19.9980 H   0  0  0  0  0  0  0  0  0  0  0  0
    6.7540    5.7140   19.3980 H   0  0  0  0  0  0  0  0  0  0  0  0
    6.9030    4.2360   18.4510 H   0  0  0  0  0  0  0  0  0  0  0  0
  1  2  1  0  0  0  0
  2  3  2  0  0  0  0
  4  1  1  0  0  0  0
  5  2  1  0  0  0  0
  5 15  1  0  0  0  0
  6  5  2  0  0  0  0
  7  6  1  0  0  0  0
  7  8  2  0  0  0  0
  8  9  1  0  0  0  0
  9 15  2  0  0  0  0
  9 10  1  0  0  0  0
 10 14  1  0  0  0  0
 11 19  1  0  0  0  0
 11 10  1  0  0  0  0
 11 12  1  0  0  0  0
 12 21  1  0  0  0  0
 12 13  1  0  0  0  0
 13 22  1  0  0  0  0
 13 23  1  0  0  0  0
 14 13  1  0  0  0  0
 14 25  1  0  0  0  0
 16  6  1  0  0  0  0
 17  8  1  0  0  0  0
 18 11  1  0  0  0  0
 20 12  1  0  0  0  0
 24 14  1  0  0  0  0
 26 27  1  0  0  0  0
 27 32  1  0  0  0  0
 27 28  2  0  0  0  0
 28 33  1  0  0  0  0
 29 28  1  0  0  0  0
 29 34  1  0  0  0  0
 30  1  1  0  0  0  0
 30 29  2  0  0  0  0
 31 26  2  0  0  0  0
 31 30  1  0  0  0  0
 35 31  1  0  0  0  0
 36 45  1  1  0  0  0
 36 26  1  0  0  0  0
 37 43  1  0  0  0  0
 37 36  1  0  0  0  0
 38 37  1  0  0  0  0
 39 38  2  0  0  0  0
 40 38  1  0  0  0  0
 40 41  1  0  0  0  0
 41 42  2  0  0  0  0
 41 36  1  0  0  0  0
 44 40  1  0  0  0  0
 45 47  1  0  0  0  0
 45 46  1  0  0  0  0
 48 45  1  0  0  0  0
M  END
>  <MODEL>
24

>  <REMARK>
 VINA RESULT:    -7.635      2.272      3.025
 INTER + INTRA:          -9.509
 INTER:                  -9.107
 INTRA:                  -0.402
 UNBOUND:                -0.312
  Name = 
  4 active torsions:
  status: ('A' for Active; 'I' for Inactive)
    1  A    between atoms: C_1  and  C_2
    2  A    between atoms: C_2  and  C_3
    3  A    between atoms: C_7  and  N_8
    4  A    between atoms: C_9  and  C_11
                            x       y       z     vdW  Elec       q    Type
                         _______ _______ _______ _____ _____    ______ ____

>  <TORSDO>
F 4

$$$$
=
 OpenBabel07192307433D

 48 51  0  0  1  0  0  0  0  0999 V2000
    1.9710    8.0010   18.5050 N   0  0  0  0  0  0  0  0  0  0  0  0
    1.4850    8.4420   19.7220 C   0  0  0  0  0  0  0  0  0  0  0  0
    1.5940    7.8900   20.8100 O   0  0  0  0  0  0  0  0  0  0  0  0
    1.7670    8.6280   17.7290 H   0  0  0  0  0  0  0  0  0  0  0  0
    0.7610    9.7410   19.6170 C   0  0  0  0  0  0  0  0  0  0  0  0
   -0.5740    9.8270   19.9650 C   0  0  0  0  0  0  0  0  0  0  0  0
   -1.2560   10.9890   19.8740 N   0  0  0  0  0  0  0  0  0  0  0  0
   -0.5260   12.0450   19.4220 C   0  0  0  0  0  0  0  0  0  0  0  0
    0.8310   11.9920   19.0740 C   0  0  0  0  0  0  0  0  0  0  0  0
    1.5270   13.0820   18.6160 N   0  0  0  0  0  0  0  0  0  0  0  0
    1.1030   14.4640   18.8070 C   0  0  0  0  0  0  0  0  0  0  0  0
    2.4020   15.2670   18.7260 C   0  0  0  0  0  0  0  0  0  0  0  0
    3.3060   14.3980   17.8660 C   0  0  0  0  0  0  0  0  0  0  0  0
    2.9520   12.9870   18.3260 C   0  0  0  0  0  0  0  0  0  0  0  0
    1.4850   10.8100   19.1670 N   0  0  0  0  0  0  0  0  0  0  0  0
   -1.1340    8.9680   20.3210 H   0  0  0  0  0  0  0  0  0  0  0  0
   -1.0920   12.9670   19.3350 H   0  0  0  0  0  0  0  0  0  0  0  0
    0.6170   14.6350   19.7740 H   0  0  0  0  0  0  0  0  0  0  0  0
    0.4170   14.7550   18.0040 H   0  0  0  0  0  0  0  0  0  0  0  0
    2.8350   15.3760   19.7280 H   0  0  0  0  0  0  0  0  0  0  0  0
    2.2510   16.2660   18.3110 H   0  0  0  0  0  0  0  0  0  0  0  0
    3.0510   14.5260   16.8080 H   0  0  0  0  0  0  0  0  0  0  0  0
    4.3680   14.6270   17.9960 H   0  0  0  0  0  0  0  0  0  0  0  0
    3.5150   12.7310   19.2330 H   0  0  0  0  0  0  0  0  0  0  0  0
    3.1720   12.2530   17.5440 H   0  0  0  0  0  0  0  0  0  0  0  0
    4.7860    5.5840   17.8680 C   0  0  0  0  0  0  0  0  0  0  0  0
    4.0210    4.4270   17.6530 C   0  0  0  0  0  0  0  0  0  0  0  0
    2.6270    4.4670   17.7200 C   0  0  0  0  0  0  0  0  0  0  0  0
    1.9710    5.6630   18.0050 C   0  0  0  0  0  0  0  0  0  0  0  0
    2.7000    6.8320   18.2260 C   0  0  0  0  0  0  0  0  0  0  0  0
    4.0960    6.7830   18.1600 C   0  0  0  0  0  0  0  0  0  0  0  0
    4.4870    3.4720   17.4250 H   0  0  0  0  0  0  0  0  0  0  0  0
    2.0510    3.5600   17.5470 H   0  0  0  0  0  0  0  0  0  0  0  0
    0.8860    5.6660   18.0480 H   0  0  0  0  0  0  0  0  0  0  0  0
    4.6730    7.6850   18.3380 H   0  0  0  0  0  0  0  0  0  0  0  0
    6.3110    5.5800   17.8100 C   0  0  2  0  0  0  0  0  0  0  0  0
    6.8480    6.8000   18.3860 N   0  0  0  0  0  0  0  0  0  0  0  0
    7.5720    7.5360   17.4820 C   0  0  0  0  0  0  0  0  0  0  0  0
    8.0810    8.6180   17.7120 O   0  0  0  0  0  0  0  0  0  0  0  0
    7.6090    6.8680   16.3070 N   0  0  0  0  0  0  0  0  0  0  0  0
    6.8570    5.7330   16.3690 C   0  0  0  0  0  0  0  0  0  0  0  0
    6.6770    4.9670   15.4330 O   0  0  0  0  0  0  0  0  0  0  0  0
    6.6040    7.1760   19.2920 H   0  0  0  0  0  0  0  0  0  0  0  0
    8.0380    7.2240   15.4720 H   0  0  0  0  0  0  0  0  0  0  0  0
    7.0140    4.3750   18.4450 C   0  0  0  0  0  0  0  0  0  0  0  0
    6.4990    4.0450   19.3550 H   0  0  0  0  0  0  0  0  0  0  0  0
    8.0450    4.6170   18.7310 H   0  0  0  0  0  0  0  0  0  0  0  0
    7.0660    3.5290   17.7500 H   0  0  0  0  0  0  0  0  0  0  0  0
  1  2  1  0  0  0  0
  2  3  2  0  0  0  0
  4  1  1  0  0  0  0
  5  2  1  0  0  0  0
  5  6  1  0  0  0  0
  6 16  1  0  0  0  0
  7  6  2  0  0  0  0
  8  7  1  0  0  0  0
  9 15  1  0  0  0  0
  9  8  2  0  0  0  0
 10 11  1  0  0  0  0
 10  9  1  0  0  0  0
 11 18  1  0  0  0  0
 12 11  1  0  0  0  0
 12 20  1  0  0  0  0
 13 23  1  0  0  0  0
 13 14  1  0  0  0  0
 13 12  1  0  0  0  0
 14 10  1  0  0  0  0
 14 24  1  0  0  0  0
 15  5  2  0  0  0  0
 17  8  1  0  0  0  0
 19 11  1  0  0  0  0
 21 12  1  0  0  0  0
 22 13  1  0  0  0  0
 25 14  1  0  0  0  0
 26 31  1  0  0  0  0
 27 28  1  0  0  0  0
 27 26  2  0  0  0  0
 28 29  2  0  0  0  0
 29 34  1  0  0  0  0
 29 30  1  0  0  0  0
 30  1  1  0  0  0  0
 31 30  2  0  0  0  0
 31 35  1  0  0  0  0
 32 27  1  0  0  0  0
 33 28  1  0  0  0  0
 36 26  1  0  0  0  0
 36 37  1  0  0  0  0
 36 45  1  1  0  0  0
 37 43  1  0  0  0  0
 38 39  2  0  0  0  0
 38 37  1  0  0  0  0
 40 41  1  0  0  0  0
 40 38  1  0  0  0  0
 41 36  1  0  0  0  0
 42 41  2  0  0  0  0
 44 40  1  0  0  0  0
 45 47  1  0  0  0  0
 45 46  1  0  0  0  0
 48 45  1  0  0  0  0
M  END
>  <MODEL>
25

>  <REMARK>
 VINA RESULT:    -7.625      2.018      2.664
 INTER + INTRA:          -9.497
 INTER:                  -8.772
 INTRA:                  -0.725
 UNBOUND:                -0.312
  Name = 
  4 active torsions:
  status: ('A' for Active; 'I' for Inactive)
    1  A    between atoms: C_1  and  C_2
    2  A    between atoms: C_2  and  C_3
    3  A    between atoms: C_7  and  N_8
    4  A    between atoms: C_9  and  C_11
                            x       y       z     vdW  Elec       q    Type
                         _______ _______ _______ _____ _____    ______ ____

>  <TORSDO>
F 4

$$$$
=
 OpenBabel07192307433D

 48 51  0  0  1  0  0  0  0  0999 V2000
    2.4780    8.9160   18.6010 N   0  0  0  0  0  0  0  0  0  0  0  0
    1.3510    9.6130   18.2070 C   0  0  0  0  0  0  0  0  0  0  0  0
    0.4980    9.2550   17.4040 O   0  0  0  0  0  0  0  0  0  0  0  0
    3.0460    9.4070   19.2890 H   0  0  0  0  0  0  0  0  0  0  0  0
    1.2290   10.9380   18.8790 C   0  0  0  0  0  0  0  0  0  0  0  0
    1.9080   12.0360   18.3860 C   0  0  0  0  0  0  0  0  0  0  0  0
    1.8200   13.2470   18.9780 N   0  0  0  0  0  0  0  0  0  0  0  0
    1.0200   13.2880   20.0780 C   0  0  0  0  0  0  0  0  0  0  0  0
    0.3090   12.1950   20.5940 C   0  0  0  0  0  0  0  0  0  0  0  0
   -0.4840   12.2800   21.7110 N   0  0  0  0  0  0  0  0  0  0  0  0
   -1.0060   13.5300   22.2510 C   0  0  0  0  0  0  0  0  0  0  0  0
   -2.2580   13.1080   23.0200 C   0  0  0  0  0  0  0  0  0  0  0  0
   -1.9730   11.6630   23.4010 C   0  0  0  0  0  0  0  0  0  0  0  0
   -1.2490   11.1290   22.1690 C   0  0  0  0  0  0  0  0  0  0  0  0
    0.4240   10.9920   19.9840 N   0  0  0  0  0  0  0  0  0  0  0  0
    2.5420   11.9760   17.5080 H   0  0  0  0  0  0  0  0  0  0  0  0
    0.9750   14.2620   20.5550 H   0  0  0  0  0  0  0  0  0  0  0  0
   -1.2720   14.2550   21.4730 H   0  0  0  0  0  0  0  0  0  0  0  0
   -0.2700   13.9790   22.9250 H   0  0  0  0  0  0  0  0  0  0  0  0
   -3.1340   13.1520   22.3620 H   0  0  0  0  0  0  0  0  0  0  0  0
   -2.4520   13.7460   23.8860 H   0  0  0  0  0  0  0  0  0  0  0  0
   -1.3100   11.6300   24.2740 H   0  0  0  0  0  0  0  0  0  0  0  0
   -2.8800   11.0960   23.6340 H   0  0  0  0  0  0  0  0  0  0  0  0
   -1.9750   10.8180   21.4070 H   0  0  0  0  0  0  0  0  0  0  0  0
   -0.6100   10.2780   22.4300 H   0  0  0  0  0  0  0  0  0  0  0  0
    4.5510    6.1020   17.2020 C   0  0  0  0  0  0  0  0  0  0  0  0
    3.6370    5.0540   17.3970 C   0  0  0  0  0  0  0  0  0  0  0  0
    2.3870    5.2920   17.9710 C   0  0  0  0  0  0  0  0  0  0  0  0
    2.0270    6.5800   18.3620 C   0  0  0  0  0  0  0  0  0  0  0  0
    2.9110    7.6450   18.1850 C   0  0  0  0  0  0  0  0  0  0  0  0
    4.1630    7.3980   17.6130 C   0  0  0  0  0  0  0  0  0  0  0  0
    3.8720    4.0340   17.1060 H   0  0  0  0  0  0  0  0  0  0  0  0
    1.6900    4.4670   18.1110 H   0  0  0  0  0  0  0  0  0  0  0  0
    1.0460    6.7370   18.8040 H   0  0  0  0  0  0  0  0  0  0  0  0
    4.8610    8.2170   17.4770 H   0  0  0  0  0  0  0  0  0  0  0  0
    5.9290    5.8820   16.5840 C   0  0  2  0  0  0  0  0  0  0  0  0
    5.8170    5.6410   15.1560 N   0  0  0  0  0  0  0  0  0  0  0  0
    6.2940    4.4070   14.7910 C   0  0  0  0  0  0  0  0  0  0  0  0
    6.2650    3.9550   13.6610 O   0  0  0  0  0  0  0  0  0  0  0  0
    6.7800    3.7860   15.8890 N   0  0  0  0  0  0  0  0  0  0  0  0
    6.5680    4.5370   17.0070 C   0  0  0  0  0  0  0  0  0  0  0  0
    6.8650    4.1920   18.1420 O   0  0  0  0  0  0  0  0  0  0  0  0
    5.3070    6.2200   14.5030 H   0  0  0  0  0  0  0  0  0  0  0  0
    7.1390    2.8480   15.8910 H   0  0  0  0  0  0  0  0  0  0  0  0
    6.9680    6.9840   16.8250 C   0  0  0  0  0  0  0  0  0  0  0  0
    7.9810    6.6380   16.5860 H   0  0  0  0  0  0  0  0  0  0  0  0
    6.9780    7.3020   17.8750 H   0  0  0  0  0  0  0  0  0  0  0  0
    6.7540    7.8750   16.2250 H   0  0  0  0  0  0  0  0  0  0  0  0
  1  4  1  0  0  0  0
  2  1  1  0  0  0  0
  2  5  1  0  0  0  0
  3  2  2  0  0  0  0
  5 15  1  0  0  0  0
  6  5  2  0  0  0  0
  6  7  1  0  0  0  0
  7  8  2  0  0  0  0
  8 17  1  0  0  0  0
  8  9  1  0  0  0  0
  9 10  1  0  0  0  0
 10 14  1  0  0  0  0
 10 11  1  0  0  0  0
 11 19  1  0  0  0  0
 11 12  1  0  0  0  0
 12 13  1  0  0  0  0
 12 21  1  0  0  0  0
 13 23  1  0  0  0  0
 13 22  1  0  0  0  0
 14 25  1  0  0  0  0
 14 13  1  0  0  0  0
 15  9  2  0  0  0  0
 16  6  1  0  0  0  0
 18 11  1  0  0  0  0
 20 12  1  0  0  0  0
 24 14  1  0  0  0  0
 26 27  2  0  0  0  0
 26 31  1  0  0  0  0
 27 28  1  0  0  0  0
 28 33  1  0  0  0  0
 28 29  2  0  0  0  0
 29 34  1  0  0  0  0
 30 29  1  0  0  0  0
 30  1  1  0  0  0  0
 31 30  2  0  0  0  0
 32 27  1  0  0  0  0
 35 31  1  0  0  0  0
 36 45  1  1  0  0  0
 36 41  1  0  0  0  0
 36 26  1  0  0  0  0
 37 36  1  0  0  0  0
 38 37  1  0  0  0  0
 38 40  1  0  0  0  0
 39 38  2  0  0  0  0
 40 44  1  0  0  0  0
 40 41  1  0  0  0  0
 41 42  2  0  0  0  0
 43 37  1  0  0  0  0
 45 47  1  0  0  0  0
 46 45  1  0  0  0  0
 48 45  1  0  0  0  0
M  END
>  <MODEL>
26

>  <REMARK>
 VINA RESULT:    -7.619      1.370      2.236
 INTER + INTRA:          -9.489
 INTER:                  -9.021
 INTRA:                  -0.469
 UNBOUND:                -0.312
  Name = 
  4 active torsions:
  status: ('A' for Active; 'I' for Inactive)
    1  A    between atoms: C_1  and  C_2
    2  A    between atoms: C_2  and  C_3
    3  A    between atoms: C_7  and  N_8
    4  A    between atoms: C_9  and  C_11
                            x       y       z     vdW  Elec       q    Type
                         _______ _______ _______ _____ _____    ______ ____

>  <TORSDO>
F 4

$$$$
=
 OpenBabel07192307433D

 48 51  0  0  1  0  0  0  0  0999 V2000
    1.5430    9.2030   18.0050 N   0  0  0  0  0  0  0  0  0  0  0  0
    1.9850    8.2300   18.8820 C   0  0  0  0  0  0  0  0  0  0  0  0
    1.7460    8.1460   20.0810 O   0  0  0  0  0  0  0  0  0  0  0  0
    1.8620    9.0680   17.0470 H   0  0  0  0  0  0  0  0  0  0  0  0
    2.8390    7.2030   18.2210 C   0  0  0  0  0  0  0  0  0  0  0  0
    3.9010    7.5860   17.4230 C   0  0  0  0  0  0  0  0  0  0  0  0
    4.6880    6.6770   16.8080 N   0  0  0  0  0  0  0  0  0  0  0  0
    4.3500    5.3790   17.0390 C   0  0  0  0  0  0  0  0  0  0  0  0
    3.2870    4.9600   17.8520 C   0  0  0  0  0  0  0  0  0  0  0  0
    2.9790    3.6380   18.0530 N   0  0  0  0  0  0  0  0  0  0  0  0
    3.9000    2.5350   17.8080 C   0  0  0  0  0  0  0  0  0  0  0  0
    3.3950    1.4180   18.7230 C   0  0  0  0  0  0  0  0  0  0  0  0
    1.9160    1.7320   18.8850 C   0  0  0  0  0  0  0  0  0  0  0  0
    1.9020    3.2550   18.9570 C   0  0  0  0  0  0  0  0  0  0  0  0
    2.5110    5.8950   18.4490 N   0  0  0  0  0  0  0  0  0  0  0  0
    4.1480    8.6290   17.2540 H   0  0  0  0  0  0  0  0  0  0  0  0
    4.9780    4.6610   16.5220 H   0  0  0  0  0  0  0  0  0  0  0  0
    4.9390    2.7800   18.0570 H   0  0  0  0  0  0  0  0  0  0  0  0
    3.8440    2.2310   16.7580 H   0  0  0  0  0  0  0  0  0  0  0  0
    3.8960    1.4780   19.6960 H   0  0  0  0  0  0  0  0  0  0  0  0
    3.5770    0.4240   18.3080 H   0  0  0  0  0  0  0  0  0  0  0  0
    1.3620    1.3890   18.0030 H   0  0  0  0  0  0  0  0  0  0  0  0
    1.4760    1.2650   19.7720 H   0  0  0  0  0  0  0  0  0  0  0  0
    2.1170    3.5900   19.9800 H   0  0  0  0  0  0  0  0  0  0  0  0
    0.9300    3.6530   18.6430 H   0  0  0  0  0  0  0  0  0  0  0  0
    0.3490   12.6810   18.8080 C   0  0  0  0  0  0  0  0  0  0  0  0
   -1.0330   12.4360   18.7880 C   0  0  0  0  0  0  0  0  0  0  0  0
   -1.5300   11.1600   18.5180 C   0  0  0  0  0  0  0  0  0  0  0  0
   -0.6560   10.1050   18.2610 C   0  0  0  0  0  0  0  0  0  0  0  0
    0.7230   10.3130   18.2710 C   0  0  0  0  0  0  0  0  0  0  0  0
    1.2130   11.5960   18.5390 C   0  0  0  0  0  0  0  0  0  0  0  0
   -1.7540   13.2260   18.9850 H   0  0  0  0  0  0  0  0  0  0  0  0
   -2.6050   10.9880   18.5100 H   0  0  0  0  0  0  0  0  0  0  0  0
   -1.0700    9.1220   18.0560 H   0  0  0  0  0  0  0  0  0  0  0  0
    2.2840   11.7710   18.5420 H   0  0  0  0  0  0  0  0  0  0  0  0
    0.9310   14.0630   19.0930 C   0  0  2  0  0  0  0  0  0  0  0  0
    2.0610   14.3320   18.2220 N   0  0  0  0  0  0  0  0  0  0  0  0
    3.2270   14.5330   18.9170 C   0  0  0  0  0  0  0  0  0  0  0  0
    4.3170   14.7270   18.4110 O   0  0  0  0  0  0  0  0  0  0  0  0
    2.9610   14.4640   20.2410 N   0  0  0  0  0  0  0  0  0  0  0  0
    1.6560   14.1390   20.4590 C   0  0  0  0  0  0  0  0  0  0  0  0
    1.1580   13.9640   21.5630 O   0  0  0  0  0  0  0  0  0  0  0  0
    2.0620   14.2300   17.2160 H   0  0  0  0  0  0  0  0  0  0  0  0
    3.6610   14.5280   20.9590 H   0  0  0  0  0  0  0  0  0  0  0  0
   -0.0470   15.2420   19.0220 C   0  0  0  0  0  0  0  0  0  0  0  0
   -1.0290   14.9260   18.6510 H   0  0  0  0  0  0  0  0  0  0  0  0
    0.3160   16.0230   18.3430 H   0  0  0  0  0  0  0  0  0  0  0  0
   -0.1810   15.7110   20.0040 H   0  0  0  0  0  0  0  0  0  0  0  0
  1 30  1  0  0  0  0
  1  2  1  0  0  0  0
  2  3  2  0  0  0  0
  4  1  1  0  0  0  0
  5 15  1  0  0  0  0
  5  2  1  0  0  0  0
  6  5  2  0  0  0  0
  7  8  2  0  0  0  0
  7  6  1  0  0  0  0
  8  9  1  0  0  0  0
  9 10  1  0  0  0  0
  9 15  2  0  0  0  0
 10 14  1  0  0  0  0
 11 10  1  0  0  0  0
 11 18  1  0  0  0  0
 11 12  1  0  0  0  0
 12 13  1  0  0  0  0
 12 20  1  0  0  0  0
 13 14  1  0  0  0  0
 13 23  1  0  0  0  0
 14 24  1  0  0  0  0
 16  6  1  0  0  0  0
 17  8  1  0  0  0  0
 19 11  1  0  0  0  0
 21 12  1  0  0  0  0
 22 13  1  0  0  0  0
 25 14  1  0  0  0  0
 26 36  1  0  0  0  0
 27 26  1  0  0  0  0
 27 32  1  0  0  0  0
 28 27  2  0  0  0  0
 29 30  2  0  0  0  0
 29 28  1  0  0  0  0
 30 31  1  0  0  0  0
 31 35  1  0  0  0  0
 31 26  2  0  0  0  0
 33 28  1  0  0  0  0
 34 29  1  0  0  0  0
 36 45  1  6  0  0  0
 36 41  1  0  0  0  0
 37 38  1  0  0  0  0
 37 36  1  0  0  0  0
 38 40  1  0  0  0  0
 39 38  2  0  0  0  0
 40 41  1  0  0  0  0
 40 44  1  0  0  0  0
 41 42  2  0  0  0  0
 43 37  1  0  0  0  0
 45 48  1  0  0  0  0
 46 45  1  0  0  0  0
 47 45  1  0  0  0  0
M  END
>  <MODEL>
27

>  <REMARK>
 VINA RESULT:    -7.598      3.248      9.067
 INTER + INTRA:          -9.464
 INTER:                  -8.765
 INTRA:                  -0.699
 UNBOUND:                -0.312
  Name = 
  4 active torsions:
  status: ('A' for Active; 'I' for Inactive)
    1  A    between atoms: C_1  and  C_2
    2  A    between atoms: C_2  and  C_3
    3  A    between atoms: C_7  and  N_8
    4  A    between atoms: C_9  and  C_11
                            x       y       z     vdW  Elec       q    Type
                         _______ _______ _______ _____ _____    ______ ____

>  <TORSDO>
F 4

$$$$
=
 OpenBabel07192307433D

 48 51  0  0  1  0  0  0  0  0999 V2000
    1.8000    9.2020   19.7850 N   0  0  0  0  0  0  0  0  0  0  0  0
    1.1920    9.9570   18.7990 C   0  0  0  0  0  0  0  0  0  0  0  0
    0.6470    9.5490   17.7810 O   0  0  0  0  0  0  0  0  0  0  0  0
    2.1830    9.7550   20.5490 H   0  0  0  0  0  0  0  0  0  0  0  0
    1.2440   11.4200   19.0800 C   0  0  0  0  0  0  0  0  0  0  0  0
    1.9410   12.2680   18.2400 C   0  0  0  0  0  0  0  0  0  0  0  0
    2.0090   13.5970   18.4740 N   0  0  0  0  0  0  0  0  0  0  0  0
    1.3430   14.0160   19.5840 C   0  0  0  0  0  0  0  0  0  0  0  0
    0.6170   13.1820   20.4470 C   0  0  0  0  0  0  0  0  0  0  0  0
   -0.0350   13.6480   21.5600 N   0  0  0  0  0  0  0  0  0  0  0  0
   -0.4010   15.0440   21.7710 C   0  0  0  0  0  0  0  0  0  0  0  0
   -1.5860   14.9770   22.7360 C   0  0  0  0  0  0  0  0  0  0  0  0
   -1.3650   13.6690   23.4810 C   0  0  0  0  0  0  0  0  0  0  0  0
   -0.8260   12.7490   22.3900 C   0  0  0  0  0  0  0  0  0  0  0  0
    0.5750   11.8540   20.1920 N   0  0  0  0  0  0  0  0  0  0  0  0
    2.4660   11.9070   17.3620 H   0  0  0  0  0  0  0  0  0  0  0  0
    1.4240   15.0820   19.7700 H   0  0  0  0  0  0  0  0  0  0  0  0
   -0.7000   15.5540   20.8480 H   0  0  0  0  0  0  0  0  0  0  0  0
    0.4380   15.5830   22.2240 H   0  0  0  0  0  0  0  0  0  0  0  0
   -2.5250   14.9290   22.1720 H   0  0  0  0  0  0  0  0  0  0  0  0
   -1.6330   15.8430   23.4010 H   0  0  0  0  0  0  0  0  0  0  0  0
   -0.6120   13.8070   24.2650 H   0  0  0  0  0  0  0  0  0  0  0  0
   -2.2790   13.2820   23.9420 H   0  0  0  0  0  0  0  0  0  0  0  0
   -1.6540   12.3180   21.8130 H   0  0  0  0  0  0  0  0  0  0  0  0
   -0.2260   11.9400   22.8210 H   0  0  0  0  0  0  0  0  0  0  0  0
    2.8810    5.6550   19.1340 C   0  0  0  0  0  0  0  0  0  0  0  0
    2.1030    5.0180   20.1140 C   0  0  0  0  0  0  0  0  0  0  0  0
    1.2590    5.7530   20.9490 C   0  0  0  0  0  0  0  0  0  0  0  0
    1.1770    7.1380   20.8200 C   0  0  0  0  0  0  0  0  0  0  0  0
    1.9370    7.8050   19.8580 C   0  0  0  0  0  0  0  0  0  0  0  0
    2.7830    7.0610   19.0290 C   0  0  0  0  0  0  0  0  0  0  0  0
    2.1320    3.9400   20.2510 H   0  0  0  0  0  0  0  0  0  0  0  0
    0.6610    5.2410   21.7000 H   0  0  0  0  0  0  0  0  0  0  0  0
    0.5100    7.6860   21.4800 H   0  0  0  0  0  0  0  0  0  0  0  0
    3.3840    7.5700   18.2820 H   0  0  0  0  0  0  0  0  0  0  0  0
    3.8200    4.8880   18.2080 C   0  0  2  0  0  0  0  0  0  0  0  0
    3.2270    3.6230   17.8110 N   0  0  0  0  0  0  0  0  0  0  0  0
    3.9710    2.5420   18.2150 C   0  0  0  0  0  0  0  0  0  0  0  0
    3.6590    1.3780   18.0440 O   0  0  0  0  0  0  0  0  0  0  0  0
    5.0850    2.9890   18.8370 N   0  0  0  0  0  0  0  0  0  0  0  0
    5.0750    4.3480   18.9390 C   0  0  0  0  0  0  0  0  0  0  0  0
    5.9370    5.0100   19.4990 O   0  0  0  0  0  0  0  0  0  0  0  0
    2.2990    3.5060   17.4280 H   0  0  0  0  0  0  0  0  0  0  0  0
    5.7660    2.3890   19.2680 H   0  0  0  0  0  0  0  0  0  0  0  0
    4.2990    5.6310   16.9550 C   0  0  0  0  0  0  0  0  0  0  0  0
    3.5760    5.5400   16.1350 H   0  0  0  0  0  0  0  0  0  0  0  0
    5.2510    5.2260   16.5880 H   0  0  0  0  0  0  0  0  0  0  0  0
    4.4620    6.6950   17.1580 H   0  0  0  0  0  0  0  0  0  0  0  0
  1 30  1  0  0  0  0
  1  4  1  0  0  0  0
  2  5  1  0  0  0  0
  2  1  1  0  0  0  0
  3  2  2  0  0  0  0
  5 15  1  0  0  0  0
  6  7  1  0  0  0  0
  6  5  2  0  0  0  0
  7  8  2  0  0  0  0
  8 17  1  0  0  0  0
  8  9  1  0  0  0  0
  9 10  1  0  0  0  0
 10 11  1  0  0  0  0
 10 14  1  0  0  0  0
 11 19  1  0  0  0  0
 11 12  1  0  0  0  0
 12 21  1  0  0  0  0
 12 13  1  0  0  0  0
 13 23  1  0  0  0  0
 13 22  1  0  0  0  0
 14 25  1  0  0  0  0
 14 13  1  0  0  0  0
 15  9  2  0  0  0  0
 16  6  1  0  0  0  0
 18 11  1  0  0  0  0
 20 12  1  0  0  0  0
 24 14  1  0  0  0  0
 26 27  1  0  0  0  0
 27 32  1  0  0  0  0
 27 28  2  0  0  0  0
 28 33  1  0  0  0  0
 29 28  1  0  0  0  0
 29 34  1  0  0  0  0
 30 29  2  0  0  0  0
 31 26  2  0  0  0  0
 31 30  1  0  0  0  0
 35 31  1  0  0  0  0
 36 45  1  6  0  0  0
 36 41  1  0  0  0  0
 36 26  1  0  0  0  0
 37 36  1  0  0  0  0
 37 38  1  0  0  0  0
 38 40  1  0  0  0  0
 39 38  2  0  0  0  0
 40 41  1  0  0  0  0
 40 44  1  0  0  0  0
 41 42  2  0  0  0  0
 43 37  1  0  0  0  0
 45 48  1  0  0  0  0
 46 45  1  0  0  0  0
 47 45  1  0  0  0  0
M  END
>  <MODEL>
28

>  <REMARK>
 VINA RESULT:    -7.582      2.395      3.430
 INTER + INTRA:          -9.445
 INTER:                  -8.794
 INTRA:                  -0.651
 UNBOUND:                -0.312
  Name = 
  4 active torsions:
  status: ('A' for Active; 'I' for Inactive)
    1  A    between atoms: C_1  and  C_2
    2  A    between atoms: C_2  and  C_3
    3  A    between atoms: C_7  and  N_8
    4  A    between atoms: C_9  and  C_11
                            x       y       z     vdW  Elec       q    Type
                         _______ _______ _______ _____ _____    ______ ____

>  <TORSDO>
F 4

$$$$
=
 OpenBabel07192307433D

 48 51  0  0  1  0  0  0  0  0999 V2000
    1.4230    8.1110   20.0230 N   0  0  0  0  0  0  0  0  0  0  0  0
    1.2370    8.9180   21.1290 C   0  0  0  0  0  0  0  0  0  0  0  0
    1.5660    8.6830   22.2850 O   0  0  0  0  0  0  0  0  0  0  0  0
    1.0740    8.5140   19.1560 H   0  0  0  0  0  0  0  0  0  0  0  0
    0.5560   10.2020   20.7970 C   0  0  0  0  0  0  0  0  0  0  0  0
   -0.7290   10.4480   21.2470 C   0  0  0  0  0  0  0  0  0  0  0  0
   -1.3720   11.5990   20.9560 N   0  0  0  0  0  0  0  0  0  0  0  0
   -0.6580   12.4770   20.2000 C   0  0  0  0  0  0  0  0  0  0  0  0
    0.6500   12.2610   19.7410 C   0  0  0  0  0  0  0  0  0  0  0  0
    1.3310   13.1730   18.9740 N   0  0  0  0  0  0  0  0  0  0  0  0
    0.9830   14.5860   18.8790 C   0  0  0  0  0  0  0  0  0  0  0  0
    2.2940   15.2670   18.4850 C   0  0  0  0  0  0  0  0  0  0  0  0
    3.0630   14.1700   17.7650 C   0  0  0  0  0  0  0  0  0  0  0  0
    2.7100   12.9260   18.5750 C   0  0  0  0  0  0  0  0  0  0  0  0
    1.2650   11.0930   20.0400 N   0  0  0  0  0  0  0  0  0  0  0  0
   -1.2770    9.7300   21.8470 H   0  0  0  0  0  0  0  0  0  0  0  0
   -1.1950   13.3880   19.9570 H   0  0  0  0  0  0  0  0  0  0  0  0
    0.6150   15.0020   19.8240 H   0  0  0  0  0  0  0  0  0  0  0  0
    0.2240   14.7290   18.1030 H   0  0  0  0  0  0  0  0  0  0  0  0
    2.8400   15.5740   19.3850 H   0  0  0  0  0  0  0  0  0  0  0  0
    2.1360   16.1530   17.8660 H   0  0  0  0  0  0  0  0  0  0  0  0
    2.6970   14.0690   16.7370 H   0  0  0  0  0  0  0  0  0  0  0  0
    4.1410   14.3560   17.7320 H   0  0  0  0  0  0  0  0  0  0  0  0
    3.3600   12.8480   19.4550 H   0  0  0  0  0  0  0  0  0  0  0  0
    2.8140   12.0210   17.9660 H   0  0  0  0  0  0  0  0  0  0  0  0
    3.6810    5.2490   19.0840 C   0  0  0  0  0  0  0  0  0  0  0  0
    3.1330    4.2670   19.9250 C   0  0  0  0  0  0  0  0  0  0  0  0
    2.0570    4.5620   20.7640 C   0  0  0  0  0  0  0  0  0  0  0  0
    1.5080    5.8440   20.7780 C   0  0  0  0  0  0  0  0  0  0  0  0
    2.0290    6.8440   19.9570 C   0  0  0  0  0  0  0  0  0  0  0  0
    3.1090    6.5410   19.1220 C   0  0  0  0  0  0  0  0  0  0  0  0
    3.5250    3.2540   19.9470 H   0  0  0  0  0  0  0  0  0  0  0  0
    1.6430    3.7880   21.4070 H   0  0  0  0  0  0  0  0  0  0  0  0
    0.6690    6.0450   21.4390 H   0  0  0  0  0  0  0  0  0  0  0  0
    3.5270    7.3130   18.4840 H   0  0  0  0  0  0  0  0  0  0  0  0
    4.8610    4.9670   18.1580 C   0  0  2  0  0  0  0  0  0  0  0  0
    6.0530    4.6560   18.9280 N   0  0  0  0  0  0  0  0  0  0  0  0
    7.0710    5.5500   18.7080 C   0  0  0  0  0  0  0  0  0  0  0  0
    8.1500    5.5300   19.2710 O   0  0  0  0  0  0  0  0  0  0  0  0
    6.6670    6.4490   17.7820 N   0  0  0  0  0  0  0  0  0  0  0  0
    5.3680    6.2360   17.4290 C   0  0  0  0  0  0  0  0  0  0  0  0
    4.7370    6.9320   16.6470 O   0  0  0  0  0  0  0  0  0  0  0  0
    6.1080    3.9710   19.6690 H   0  0  0  0  0  0  0  0  0  0  0  0
    7.2170    7.2360   17.4870 H   0  0  0  0  0  0  0  0  0  0  0  0
    4.6520    3.8780   17.0990 C   0  0  0  0  0  0  0  0  0  0  0  0
    3.6130    3.8540   16.7500 H   0  0  0  0  0  0  0  0  0  0  0  0
    4.8790    2.8820   17.4980 H   0  0  0  0  0  0  0  0  0  0  0  0
    5.3060    4.0310   16.2330 H   0  0  0  0  0  0  0  0  0  0  0  0
  1  2  1  0  0  0  0
  2  3  2  0  0  0  0
  4  1  1  0  0  0  0
  5  2  1  0  0  0  0
  5  6  1  0  0  0  0
  6 16  1  0  0  0  0
  7  6  2  0  0  0  0
  8  7  1  0  0  0  0
  9 15  1  0  0  0  0
  9  8  2  0  0  0  0
 10  9  1  0  0  0  0
 11 10  1  0  0  0  0
 11 18  1  0  0  0  0
 12 11  1  0  0  0  0
 12 20  1  0  0  0  0
 13 12  1  0  0  0  0
 13 14  1  0  0  0  0
 14 10  1  0  0  0  0
 14 24  1  0  0  0  0
 15  5  2  0  0  0  0
 17  8  1  0  0  0  0
 19 11  1  0  0  0  0
 21 12  1  0  0  0  0
 22 13  1  0  0  0  0
 23 13  1  0  0  0  0
 25 14  1  0  0  0  0
 26 31  2  0  0  0  0
 26 27  1  0  0  0  0
 27 32  1  0  0  0  0
 27 28  2  0  0  0  0
 28 29  1  0  0  0  0
 28 33  1  0  0  0  0
 29 34  1  0  0  0  0
 30  1  1  0  0  0  0
 30 29  2  0  0  0  0
 31 30  1  0  0  0  0
 35 31  1  0  0  0  0
 36 45  1  6  0  0  0
 36 37  1  0  0  0  0
 36 26  1  0  0  0  0
 37 43  1  0  0  0  0
 38 37  1  0  0  0  0
 38 39  2  0  0  0  0
 40 38  1  0  0  0  0
 41 40  1  0  0  0  0
 41 36  1  0  0  0  0
 42 41  2  0  0  0  0
 44 40  1  0  0  0  0
 45 47  1  0  0  0  0
 46 45  1  0  0  0  0
 48 45  1  0  0  0  0
M  END
>  <MODEL>
29

>  <REMARK>
 VINA RESULT:    -7.575      2.187      3.085
 INTER + INTRA:          -9.437
 INTER:                  -9.180
 INTRA:                  -0.257
 UNBOUND:                -0.312
  Name = 
  4 active torsions:
  status: ('A' for Active; 'I' for Inactive)
    1  A    between atoms: C_1  and  C_2
    2  A    between atoms: C_2  and  C_3
    3  A    between atoms: C_7  and  N_8
    4  A    between atoms: C_9  and  C_11
                            x       y       z     vdW  Elec       q    Type
                         _______ _______ _______ _____ _____    ______ ____

>  <TORSDO>
F 4

$$$$
=
 OpenBabel07192307433D

 48 51  0  0  1  0  0  0  0  0999 V2000
    0.7760    8.9380   18.7600 N   0  0  0  0  0  0  0  0  0  0  0  0
    2.0100    9.0770   18.1530 C   0  0  0  0  0  0  0  0  0  0  0  0
    2.5110   10.1050   17.7130 O   0  0  0  0  0  0  0  0  0  0  0  0
    0.5680    7.9860   19.0560 H   0  0  0  0  0  0  0  0  0  0  0  0
    2.7560    7.7900   18.0630 C   0  0  0  0  0  0  0  0  0  0  0  0
    3.8640    7.6800   17.2430 C   0  0  0  0  0  0  0  0  0  0  0  0
    4.5550    6.5240   17.1380 N   0  0  0  0  0  0  0  0  0  0  0  0
    4.0740    5.5010   17.8950 C   0  0  0  0  0  0  0  0  0  0  0  0
    2.9620    5.5850   18.7450 C   0  0  0  0  0  0  0  0  0  0  0  0
    2.5080    4.5240   19.4880 N   0  0  0  0  0  0  0  0  0  0  0  0
    3.3070    3.3470   19.8080 C   0  0  0  0  0  0  0  0  0  0  0  0
    2.6720    2.8030   21.0880 C   0  0  0  0  0  0  0  0  0  0  0  0
    1.2340    3.2910   21.0070 C   0  0  0  0  0  0  0  0  0  0  0  0
    1.3850    4.6830   20.4010 C   0  0  0  0  0  0  0  0  0  0  0  0
    2.2840    6.7550   18.8220 N   0  0  0  0  0  0  0  0  0  0  0  0
    4.2250    8.5120   16.6470 H   0  0  0  0  0  0  0  0  0  0  0  0
    4.6270    4.5730   17.7850 H   0  0  0  0  0  0  0  0  0  0  0  0
    4.3630    3.5810   19.9850 H   0  0  0  0  0  0  0  0  0  0  0  0
    3.2310    2.6160   18.9970 H   0  0  0  0  0  0  0  0  0  0  0  0
    3.1640    3.2420   21.9650 H   0  0  0  0  0  0  0  0  0  0  0  0
    2.7500    1.7160   21.1640 H   0  0  0  0  0  0  0  0  0  0  0  0
    0.6570    2.6450   20.3350 H   0  0  0  0  0  0  0  0  0  0  0  0
    0.7340    3.3090   21.9810 H   0  0  0  0  0  0  0  0  0  0  0  0
    1.6220    5.4140   21.1840 H   0  0  0  0  0  0  0  0  0  0  0  0
    0.4660    4.9870   19.8870 H   0  0  0  0  0  0  0  0  0  0  0  0
   -1.3680   11.5070   20.4860 C   0  0  0  0  0  0  0  0  0  0  0  0
   -2.1570   11.8890   19.3900 C   0  0  0  0  0  0  0  0  0  0  0  0
   -1.9700   11.3060   18.1340 C   0  0  0  0  0  0  0  0  0  0  0  0
   -0.9910   10.3310   17.9520 C   0  0  0  0  0  0  0  0  0  0  0  0
   -0.1880    9.9280   19.0190 C   0  0  0  0  0  0  0  0  0  0  0  0
   -0.3790   10.5200   20.2720 C   0  0  0  0  0  0  0  0  0  0  0  0
   -2.9340   12.6440   19.4840 H   0  0  0  0  0  0  0  0  0  0  0  0
   -2.5930   11.6130   17.2970 H   0  0  0  0  0  0  0  0  0  0  0  0
   -0.8690    9.8920   16.9650 H   0  0  0  0  0  0  0  0  0  0  0  0
    0.2450   10.2190   21.1070 H   0  0  0  0  0  0  0  0  0  0  0  0
   -1.5370   12.1250   21.8710 C   0  0  2  0  0  0  0  0  0  0  0  0
   -2.8950   12.6030   22.0560 N   0  0  0  0  0  0  0  0  0  0  0  0
   -2.9520   13.9570   22.2780 C   0  0  0  0  0  0  0  0  0  0  0  0
   -3.9770   14.5990   22.4140 O   0  0  0  0  0  0  0  0  0  0  0  0
   -1.6920   14.4460   22.3050 N   0  0  0  0  0  0  0  0  0  0  0  0
   -0.7840   13.4690   22.0240 C   0  0  0  0  0  0  0  0  0  0  0  0
    0.4230   13.6470   21.9350 O   0  0  0  0  0  0  0  0  0  0  0  0
   -3.7340   12.0650   21.8860 H   0  0  0  0  0  0  0  0  0  0  0  0
   -1.4700   15.4210   22.4030 H   0  0  0  0  0  0  0  0  0  0  0  0
   -1.1510   11.2410   23.0640 C   0  0  0  0  0  0  0  0  0  0  0  0
   -1.2320   10.1760   22.8150 H   0  0  0  0  0  0  0  0  0  0  0  0
   -1.8080   11.4200   23.9240 H   0  0  0  0  0  0  0  0  0  0  0  0
   -0.1270   11.4430   23.3970 H   0  0  0  0  0  0  0  0  0  0  0  0
  1 30  1  0  0  0  0
  1  4  1  0  0  0  0
  2  1  1  0  0  0  0
  3  2  2  0  0  0  0
  5  2  1  0  0  0  0
  5 15  1  0  0  0  0
  6  5  2  0  0  0  0
  7  6  1  0  0  0  0
  7  8  2  0  0  0  0
  8  9  1  0  0  0  0
  9 15  2  0  0  0  0
  9 10  1  0  0  0  0
 10 11  1  0  0  0  0
 10 14  1  0  0  0  0
 11 18  1  0  0  0  0
 11 12  1  0  0  0  0
 12 21  1  0  0  0  0
 12 20  1  0  0  0  0
 13 12  1  0  0  0  0
 13 23  1  0  0  0  0
 14 13  1  0  0  0  0
 14 24  1  0  0  0  0
 16  6  1  0  0  0  0
 17  8  1  0  0  0  0
 19 11  1  0  0  0  0
 22 13  1  0  0  0  0
 25 14  1  0  0  0  0
 26 36  1  0  0  0  0
 27 32  1  0  0  0  0
 27 26  2  0  0  0  0
 28 27  1  0  0  0  0
 29 28  2  0  0  0  0
 29 30  1  0  0  0  0
 30 31  2  0  0  0  0
 31 26  1  0  0  0  0
 31 35  1  0  0  0  0
 33 28  1  0  0  0  0
 34 29  1  0  0  0  0
 36 41  1  0  0  0  0
 36 37  1  0  0  0  0
 36 45  1  1  0  0  0
 37 38  1  0  0  0  0
 38 40  1  0  0  0  0
 38 39  2  0  0  0  0
 40 44  1  0  0  0  0
 41 40  1  0  0  0  0
 42 41  2  0  0  0  0
 43 37  1  0  0  0  0
 45 48  1  0  0  0  0
 45 47  1  0  0  0  0
 46 45  1  0  0  0  0
M  END
>  <MODEL>
30

>  <REMARK>
 VINA RESULT:    -7.565      3.034      9.689
 INTER + INTRA:          -9.424
 INTER:                  -8.736
 INTRA:                  -0.689
 UNBOUND:                -0.312
  Name = 
  4 active torsions:
  status: ('A' for Active; 'I' for Inactive)
    1  A    between atoms: C_1  and  C_2
    2  A    between atoms: C_2  and  C_3
    3  A    between atoms: C_7  and  N_8
    4  A    between atoms: C_9  and  C_11
                            x       y       z     vdW  Elec       q    Type
                         _______ _______ _______ _____ _____    ______ ____

>  <TORSDO>
F 4

$$$$
=
 OpenBabel07192307433D

 48 51  0  0  1  0  0  0  0  0999 V2000
    1.4000    7.8350   20.4320 N   0  0  0  0  0  0  0  0  0  0  0  0
    0.8900    9.0550   20.0270 C   0  0  0  0  0  0  0  0  0  0  0  0
    0.9520    9.5530   18.9100 O   0  0  0  0  0  0  0  0  0  0  0  0
    1.2250    7.6200   21.4110 H   0  0  0  0  0  0  0  0  0  0  0  0
    0.2030    9.7850   21.1300 C   0  0  0  0  0  0  0  0  0  0  0  0
    0.0770    9.2070   22.3800 C   0  0  0  0  0  0  0  0  0  0  0  0
   -0.5460    9.8440   23.3950 N   0  0  0  0  0  0  0  0  0  0  0  0
   -1.0270   11.0780   23.0850 C   0  0  0  0  0  0  0  0  0  0  0  0
   -0.9040   11.6960   21.8320 C   0  0  0  0  0  0  0  0  0  0  0  0
   -1.4100   12.9430   21.5620 N   0  0  0  0  0  0  0  0  0  0  0  0
   -1.7590   13.9240   22.5820 C   0  0  0  0  0  0  0  0  0  0  0  0
   -1.6530   15.2670   21.8590 C   0  0  0  0  0  0  0  0  0  0  0  0
   -1.9060   14.9090   20.4030 C   0  0  0  0  0  0  0  0  0  0  0  0
   -1.2010   13.5640   20.2610 C   0  0  0  0  0  0  0  0  0  0  0  0
   -0.2820   11.0290   20.8310 N   0  0  0  0  0  0  0  0  0  0  0  0
    0.4680    8.2190   22.6000 H   0  0  0  0  0  0  0  0  0  0  0  0
   -1.5420   11.5690   23.9040 H   0  0  0  0  0  0  0  0  0  0  0  0
   -1.0810   13.9080   23.4430 H   0  0  0  0  0  0  0  0  0  0  0  0
   -2.7840   13.7490   22.9280 H   0  0  0  0  0  0  0  0  0  0  0  0
   -0.6400   15.6720   21.9710 H   0  0  0  0  0  0  0  0  0  0  0  0
   -2.3590   16.0060   22.2450 H   0  0  0  0  0  0  0  0  0  0  0  0
   -2.9820   14.7930   20.2280 H   0  0  0  0  0  0  0  0  0  0  0  0
   -1.5220   15.6600   19.7060 H   0  0  0  0  0  0  0  0  0  0  0  0
   -0.1310   13.7140   20.0710 H   0  0  0  0  0  0  0  0  0  0  0  0
   -1.6350   12.9790   19.4420 H   0  0  0  0  0  0  0  0  0  0  0  0
    2.7480    4.5830   19.0970 C   0  0  0  0  0  0  0  0  0  0  0  0
    3.5540    5.0980   18.0700 C   0  0  0  0  0  0  0  0  0  0  0  0
    3.6350    6.4740   17.8440 C   0  0  0  0  0  0  0  0  0  0  0  0
    2.9110    7.3600   18.6400 C   0  0  0  0  0  0  0  0  0  0  0  0
    2.0980    6.8830   19.6690 C   0  0  0  0  0  0  0  0  0  0  0  0
    2.0200    5.5030   19.8860 C   0  0  0  0  0  0  0  0  0  0  0  0
    4.1390    4.4480   17.4250 H   0  0  0  0  0  0  0  0  0  0  0  0
    4.2670    6.8550   17.0450 H   0  0  0  0  0  0  0  0  0  0  0  0
    2.9940    8.4260   18.4440 H   0  0  0  0  0  0  0  0  0  0  0  0
    1.3860    5.1200   20.6790 H   0  0  0  0  0  0  0  0  0  0  0  0
    2.6280    3.0870   19.3710 C   0  0  2  0  0  0  0  0  0  0  0  0
    3.5270    2.6880   20.4400 N   0  0  0  0  0  0  0  0  0  0  0  0
    4.4590    1.7680   20.0300 C   0  0  0  0  0  0  0  0  0  0  0  0
    5.3490    1.3170   20.7280 O   0  0  0  0  0  0  0  0  0  0  0  0
    4.2280    1.4640   18.7330 N   0  0  0  0  0  0  0  0  0  0  0  0
    3.2110    2.2190   18.2290 C   0  0  0  0  0  0  0  0  0  0  0  0
    2.8280    2.1820   17.0680 O   0  0  0  0  0  0  0  0  0  0  0  0
    3.5940    3.1340   21.3450 H   0  0  0  0  0  0  0  0  0  0  0  0
    4.8070    0.8490   18.1880 H   0  0  0  0  0  0  0  0  0  0  0  0
    1.2210    2.5600   19.6790 C   0  0  0  0  0  0  0  0  0  0  0  0
    0.9650    1.7050   19.0420 H   0  0  0  0  0  0  0  0  0  0  0  0
    0.4590    3.3290   19.5040 H   0  0  0  0  0  0  0  0  0  0  0  0
    1.1290    2.2520   20.7270 H   0  0  0  0  0  0  0  0  0  0  0  0
  1  4  1  0  0  0  0
  2  1  1  0  0  0  0
  2  5  1  0  0  0  0
  3  2  2  0  0  0  0
  5  6  1  0  0  0  0
  6 16  1  0  0  0  0
  6  7  2  0  0  0  0
  8  7  1  0  0  0  0
  8 17  1  0  0  0  0
  9  8  2  0  0  0  0
 10  9  1  0  0  0  0
 10 11  1  0  0  0  0
 11 19  1  0  0  0  0
 11 18  1  0  0  0  0
 12 20  1  0  0  0  0
 12 21  1  0  0  0  0
 12 11  1  0  0  0  0
 13 12  1  0  0  0  0
 14 13  1  0  0  0  0
 14 10  1  0  0  0  0
 15  5  2  0  0  0  0
 15  9  1  0  0  0  0
 22 13  1  0  0  0  0
 23 13  1  0  0  0  0
 24 14  1  0  0  0  0
 25 14  1  0  0  0  0
 26 36  1  0  0  0  0
 26 31  1  0  0  0  0
 27 26  2  0  0  0  0
 28 27  1  0  0  0  0
 28 29  2  0  0  0  0
 29 30  1  0  0  0  0
 30 31  2  0  0  0  0
 30  1  1  0  0  0  0
 31 35  1  0  0  0  0
 32 27  1  0  0  0  0
 33 28  1  0  0  0  0
 34 29  1  0  0  0  0
 36 45  1  1  0  0  0
 36 37  1  0  0  0  0
 37 43  1  0  0  0  0
 38 37  1  0  0  0  0
 38 39  2  0  0  0  0
 40 38  1  0  0  0  0
 41 40  1  0  0  0  0
 41 36  1  0  0  0  0
 42 41  2  0  0  0  0
 44 40  1  0  0  0  0
 45 48  1  0  0  0  0
 46 45  1  0  0  0  0
 47 45  1  0  0  0  0
M  END
>  <MODEL>
31

>  <REMARK>
 VINA RESULT:    -7.559      2.747      3.696
 INTER + INTRA:          -9.417
 INTER:                  -9.313
 INTRA:                  -0.104
 UNBOUND:                -0.312
  Name = 
  4 active torsions:
  status: ('A' for Active; 'I' for Inactive)
    1  A    between atoms: C_1  and  C_2
    2  A    between atoms: C_2  and  C_3
    3  A    between atoms: C_7  and  N_8
    4  A    between atoms: C_9  and  C_11
                            x       y       z     vdW  Elec       q    Type
                         _______ _______ _______ _____ _____    ______ ____

>  <TORSDO>
F 4

$$$$
=
 OpenBabel07192307433D

 48 51  0  0  1  0  0  0  0  0999 V2000
    0.5520    9.0470   19.3960 N   0  0  0  0  0  0  0  0  0  0  0  0
    1.6640    8.9040   18.5870 C   0  0  0  0  0  0  0  0  0  0  0  0
    2.0850    9.6970   17.7540 O   0  0  0  0  0  0  0  0  0  0  0  0
    0.3950    8.2610   20.0230 H   0  0  0  0  0  0  0  0  0  0  0  0
    2.3810    7.6170   18.8170 C   0  0  0  0  0  0  0  0  0  0  0  0
    2.1410    6.8780   19.9600 C   0  0  0  0  0  0  0  0  0  0  0  0
    2.7800    5.7120   20.1960 N   0  0  0  0  0  0  0  0  0  0  0  0
    3.6600    5.3370   19.2280 C   0  0  0  0  0  0  0  0  0  0  0  0
    3.9150    6.0580   18.0530 C   0  0  0  0  0  0  0  0  0  0  0  0
    4.8160    5.6450   17.1050 N   0  0  0  0  0  0  0  0  0  0  0  0
    5.3050    4.2770   16.9800 C   0  0  0  0  0  0  0  0  0  0  0  0
    5.7260    4.1640   15.5140 C   0  0  0  0  0  0  0  0  0  0  0  0
    6.0600    5.5960   15.1280 C   0  0  0  0  0  0  0  0  0  0  0  0
    4.9990    6.4000   15.8730 C   0  0  0  0  0  0  0  0  0  0  0  0
    3.2660    7.2290   17.8490 N   0  0  0  0  0  0  0  0  0  0  0  0
    1.4350    7.2010   20.7180 H   0  0  0  0  0  0  0  0  0  0  0  0
    4.1800    4.4090   19.4410 H   0  0  0  0  0  0  0  0  0  0  0  0
    4.5400    3.5250   17.2080 H   0  0  0  0  0  0  0  0  0  0  0  0
    6.1640    4.1280   17.6430 H   0  0  0  0  0  0  0  0  0  0  0  0
    4.8850    3.8030   14.9110 H   0  0  0  0  0  0  0  0  0  0  0  0
    6.5650    3.4770   15.3720 H   0  0  0  0  0  0  0  0  0  0  0  0
    7.0600    5.8590   15.4930 H   0  0  0  0  0  0  0  0  0  0  0  0
    6.0320    5.7640   14.0470 H   0  0  0  0  0  0  0  0  0  0  0  0
    4.0670    6.4280   15.2940 H   0  0  0  0  0  0  0  0  0  0  0  0
    5.3420    7.4250   16.0560 H   0  0  0  0  0  0  0  0  0  0  0  0
   -1.4220   12.0220   20.5910 C   0  0  0  0  0  0  0  0  0  0  0  0
   -2.2020   12.2290   19.4420 C   0  0  0  0  0  0  0  0  0  0  0  0
   -2.0640   11.4030   18.3240 C   0  0  0  0  0  0  0  0  0  0  0  0
   -1.1440   10.3560   18.3330 C   0  0  0  0  0  0  0  0  0  0  0  0
   -0.3520   10.1220   19.4580 C   0  0  0  0  0  0  0  0  0  0  0  0
   -0.4930   10.9570   20.5710 C   0  0  0  0  0  0  0  0  0  0  0  0
   -2.9340   13.0300   19.3880 H   0  0  0  0  0  0  0  0  0  0  0  0
   -2.6800   11.5770   17.4440 H   0  0  0  0  0  0  0  0  0  0  0  0
   -1.0600    9.7270   17.4510 H   0  0  0  0  0  0  0  0  0  0  0  0
    0.1230   10.7890   21.4490 H   0  0  0  0  0  0  0  0  0  0  0  0
   -1.5380   12.9060   21.8290 C   0  0  2  0  0  0  0  0  0  0  0  0
   -2.0530   12.1460   22.9540 N   0  0  0  0  0  0  0  0  0  0  0  0
   -3.2460   12.6390   23.4220 C   0  0  0  0  0  0  0  0  0  0  0  0
   -3.8980   12.1470   24.3250 O   0  0  0  0  0  0  0  0  0  0  0  0
   -3.5710   13.7410   22.7080 N   0  0  0  0  0  0  0  0  0  0  0  0
   -2.6680   13.9590   21.7100 C   0  0  0  0  0  0  0  0  0  0  0  0
   -2.7470   14.8580   20.8860 O   0  0  0  0  0  0  0  0  0  0  0  0
   -1.6900   11.2590   23.2770 H   0  0  0  0  0  0  0  0  0  0  0  0
   -4.4260   14.2550   22.8270 H   0  0  0  0  0  0  0  0  0  0  0  0
   -0.2650   13.6420   22.2630 C   0  0  0  0  0  0  0  0  0  0  0  0
   -0.4590   14.3130   23.1080 H   0  0  0  0  0  0  0  0  0  0  0  0
    0.1390   14.2580   21.4510 H   0  0  0  0  0  0  0  0  0  0  0  0
    0.5250   12.9390   22.5520 H   0  0  0  0  0  0  0  0  0  0  0  0
  1 30  1  0  0  0  0
  1  4  1  0  0  0  0
  2  5  1  0  0  0  0
  2  1  1  0  0  0  0
  3  2  2  0  0  0  0
  5  6  1  0  0  0  0
  6  7  2  0  0  0  0
  6 16  1  0  0  0  0
  8 17  1  0  0  0  0
  8  7  1  0  0  0  0
  9  8  2  0  0  0  0
 10  9  1  0  0  0  0
 11 10  1  0  0  0  0
 11 18  1  0  0  0  0
 11 19  1  0  0  0  0
 12 11  1  0  0  0  0
 13 22  1  0  0  0  0
 13 12  1  0  0  0  0
 13 14  1  0  0  0  0
 14 25  1  0  0  0  0
 14 10  1  0  0  0  0
 15  9  1  0  0  0  0
 15  5  2  0  0  0  0
 20 12  1  0  0  0  0
 21 12  1  0  0  0  0
 23 13  1  0  0  0  0
 24 14  1  0  0  0  0
 26 36  1  0  0  0  0
 27 26  2  0  0  0  0
 28 29  2  0  0  0  0
 28 27  1  0  0  0  0
 29 30  1  0  0  0  0
 30 31  2  0  0  0  0
 31 26  1  0  0  0  0
 31 35  1  0  0  0  0
 32 27  1  0  0  0  0
 33 28  1  0  0  0  0
 34 29  1  0  0  0  0
 36 45  1  1  0  0  0
 36 37  1  0  0  0  0
 37 43  1  0  0  0  0
 37 38  1  0  0  0  0
 38 39  2  0  0  0  0
 40 44  1  0  0  0  0
 40 38  1  0  0  0  0
 41 36  1  0  0  0  0
 41 40  1  0  0  0  0
 42 41  2  0  0  0  0
 45 48  1  0  0  0  0
 45 46  1  0  0  0  0
 47 45  1  0  0  0  0
M  END
>  <MODEL>
32

>  <REMARK>
 VINA RESULT:    -7.382      2.969     10.050
 INTER + INTRA:          -9.203
 INTER:                  -8.892
 INTRA:                  -0.312
 UNBOUND:                -0.312
  Name = 
  4 active torsions:
  status: ('A' for Active; 'I' for Inactive)
    1  A    between atoms: C_1  and  C_2
    2  A    between atoms: C_2  and  C_3
    3  A    between atoms: C_7  and  N_8
    4  A    between atoms: C_9  and  C_11
                            x       y       z     vdW  Elec       q    Type
                         _______ _______ _______ _____ _____    ______ ____

>  <TORSDO>
F 4

$$$$
