=
 OpenBabel07192307433D

 53 56  0  0  1  0  0  0  0  0999 V2000
   -0.6510   11.0960   21.5970 C   0  0  0  0  0  0  0  0  0  0  0  0
   -0.6760   10.6040   22.9170 C   0  0  0  0  0  0  0  0  0  0  0  0
   -0.0980    9.3680   23.2540 C   0  0  0  0  0  0  0  0  0  0  0  0
    0.5190    8.5860   22.2820 C   0  0  0  0  0  0  0  0  0  0  0  0
    0.5630    9.0630   20.9820 C   0  0  0  0  0  0  0  0  0  0  0  0
   -0.0160   10.2970   20.6430 C   0  0  0  0  0  0  0  0  0  0  0  0
    0.0920   10.5330   19.1600 C   0  0  0  0  0  0  0  0  0  0  0  0
    1.1970    9.5440   18.7690 C   0  0  0  0  0  0  0  0  0  0  0  0
    1.0930    8.3690   19.7600 C   0  0  1  0  0  0  0  0  0  0  0  0
   -1.1780   11.1700   23.7010 H   0  0  0  0  0  0  0  0  0  0  0  0
   -0.1550    9.0140   24.2800 H   0  0  0  0  0  0  0  0  0  0  0  0
    0.9390    7.6150   22.5350 H   0  0  0  0  0  0  0  0  0  0  0  0
    0.3820   11.5620   18.9120 H   0  0  0  0  0  0  0  0  0  0  0  0
   -0.8540   10.2790   18.6700 H   0  0  0  0  0  0  0  0  0  0  0  0
    2.1740   10.0390   18.8640 H   0  0  0  0  0  0  0  0  0  0  0  0
    1.1030    9.2180   17.7290 H   0  0  0  0  0  0  0  0  0  0  0  0
    0.3580    7.6350   19.4060 H   0  0  0  0  0  0  0  0  0  0  0  0
   -0.6040   13.5960   21.1580 C   0  0  0  0  0  0  0  0  0  0  0  0
   -1.2520   14.7580   20.8630 N   0  0  0  0  0  0  0  0  0  0  0  0
   -2.5880   14.6500   20.6440 C   0  0  0  0  0  0  0  0  0  0  0  0
   -3.2600   13.4380   20.7030 C   0  0  0  0  0  0  0  0  0  0  0  0
   -5.1220   13.3790   20.3520 Br  0  0  0  0  0  0  0  0  0  0  0  0
   -2.6260   12.2830   21.0030 N   0  0  0  0  0  0  0  0  0  0  0  0
   -1.2900   12.3690   21.2460 C   0  0  0  0  0  0  0  0  0  0  0  0
   -3.0990   15.5770   20.4110 H   0  0  0  0  0  0  0  0  0  0  0  0
    0.8810   13.7060   21.3640 C   0  0  0  0  0  0  0  0  0  0  0  0
    1.2790   12.7830   21.7930 H   0  0  0  0  0  0  0  0  0  0  0  0
    1.3830   13.9190   20.4150 H   0  0  0  0  0  0  0  0  0  0  0  0
    1.1200   14.5240   22.0540 H   0  0  0  0  0  0  0  0  0  0  0  0
    2.3650    7.7240   19.9930 N   0  0  0  0  0  0  0  0  0  0  0  0
    2.5590    6.4330   19.5840 C   0  0  0  0  0  0  0  0  0  0  0  0
    1.6970    5.7490   19.0540 O   0  0  0  0  0  0  0  0  0  0  0  0
    3.8160    5.9920   19.8890 N   0  0  0  0  0  0  0  0  0  0  0  0
    3.1790    8.3150   19.9700 H   0  0  0  0  0  0  0  0  0  0  0  0
    4.3060    6.5170   20.5920 H   0  0  0  0  0  0  0  0  0  0  0  0
    4.2180    4.6120   19.6940 C   0  0  0  0  0  0  0  0  0  0  0  0
    4.8840    4.2860   20.5050 H   0  0  0  0  0  0  0  0  0  0  0  0
    3.2980    4.0240   19.7760 H   0  0  0  0  0  0  0  0  0  0  0  0
    4.9140    4.4340   18.3630 C   0  0  0  0  0  0  0  0  0  0  0  0
    6.1420    5.0980   18.1510 C   0  0  0  0  0  0  0  0  0  0  0  0
    6.8060    5.0110   16.9300 C   0  0  0  0  0  0  0  0  0  0  0  0
    6.2650    4.2400   15.9150 C   0  0  0  0  0  0  0  0  0  0  0  0
    6.9170    4.1390   14.7550 F   0  0  0  0  0  0  0  0  0  0  0  0
    5.0650    3.5630   16.0920 C   0  0  0  0  0  0  0  0  0  0  0  0
    4.3790    3.6680   17.3060 C   0  0  0  0  0  0  0  0  0  0  0  0
    6.5960    5.6880   18.9550 H   0  0  0  0  0  0  0  0  0  0  0  0
    7.7440    5.5380   16.7700 H   0  0  0  0  0  0  0  0  0  0  0  0
    4.6860    2.9350   15.2840 H   0  0  0  0  0  0  0  0  0  0  0  0
    3.1020    2.9200   17.4340 C   0  0  0  0  0  0  0  0  0  0  0  0
    1.9770    3.6030   17.0710 N   0  0  0  0  0  0  0  0  0  0  0  0
    3.0640    1.7640   17.8340 O   0  0  0  0  0  0  0  0  0  0  0  0
    1.9880    4.5720   16.7940 H   0  0  0  0  0  0  0  0  0  0  0  0
    1.0890    3.1270   17.1500 H   0  0  0  0  0  0  0  0  0  0  0  0
  1  2  1  0  0  0  0
  2  3  2  0  0  0  0
  2 10  1  0  0  0  0
  3 11  1  0  0  0  0
  4 12  1  0  0  0  0
  4  3  1  0  0  0  0
  5  4  2  0  0  0  0
  6  5  1  0  0  0  0
  6  1  2  0  0  0  0
  7  6  1  0  0  0  0
  8 15  1  0  0  0  0
  8  7  1  0  0  0  0
  8  9  1  0  0  0  0
  9 17  1  6  0  0  0
  9 30  1  0  0  0  0
  9  5  1  0  0  0  0
 13  7  1  0  0  0  0
 14  7  1  0  0  0  0
 16  8  1  0  0  0  0
 18 24  1  0  0  0  0
 18 26  1  0  0  0  0
 19 18  2  0  0  0  0
 20 21  2  0  0  0  0
 20 19  1  0  0  0  0
 21 23  1  0  0  0  0
 22 21  1  0  0  0  0
 23 24  2  0  0  0  0
 24  1  1  0  0  0  0
 25 20  1  0  0  0  0
 26 27  1  0  0  0  0
 26 29  1  0  0  0  0
 28 26  1  0  0  0  0
 31 33  1  0  0  0  0
 31 30  1  0  0  0  0
 32 31  2  0  0  0  0
 33 35  1  0  0  0  0
 34 30  1  0  0  0  0
 36 38  1  0  0  0  0
 36 33  1  0  0  0  0
 36 37  1  0  0  0  0
 39 36  1  0  0  0  0
 40 39  1  0  0  0  0
 40 46  1  0  0  0  0
 41 40  2  0  0  0  0
 42 44  2  0  0  0  0
 42 41  1  0  0  0  0
 43 42  1  0  0  0  0
 44 45  1  0  0  0  0
 45 49  1  0  0  0  0
 45 39  2  0  0  0  0
 47 41  1  0  0  0  0
 48 44  1  0  0  0  0
 49 51  2  0  0  0  0
 50 53  1  0  0  0  0
 50 49  1  0  0  0  0
 52 50  1  0  0  0  0
M  END
>  <MODEL>
1

>  <REMARK>
 VINA RESULT:    -9.191      0.000      0.000
 INTER + INTRA:         -11.986
 INTER:                 -10.497
 INTRA:                  -1.489
 UNBOUND:                 0.161
  Name = 
  6 active torsions:
  status: ('A' for Active; 'I' for Inactive)
    1  A    between atoms: C_1  and  C_2
    2  A    between atoms: C_8  and  C_9
    3  A    between atoms: C_17  and  N_18
    4  A    between atoms: N_21  and  C_22
    5  A    between atoms: C_22  and  C_23
    6  A    between atoms: C_29  and  C_30
                            x       y       z     vdW  Elec       q    Type
                         _______ _______ _______ _____ _____    ______ ____

>  <TORSDO>
F 6

$$$$
=
 OpenBabel07192307433D

 53 56  0  0  1  0  0  0  0  0999 V2000
    0.0690   10.7510   21.0370 C   0  0  0  0  0  0  0  0  0  0  0  0
    0.1450   10.1820   22.3240 C   0  0  0  0  0  0  0  0  0  0  0  0
    0.7260    8.9200   22.5390 C   0  0  0  0  0  0  0  0  0  0  0  0
    1.2450    8.1890   21.4740 C   0  0  0  0  0  0  0  0  0  0  0  0
    1.1890    8.7420   20.2050 C   0  0  0  0  0  0  0  0  0  0  0  0
    0.6070   10.0020   19.9880 C   0  0  0  0  0  0  0  0  0  0  0  0
    0.5960   10.3250   18.5180 C   0  0  0  0  0  0  0  0  0  0  0  0
    1.6460    9.3460   17.9790 C   0  0  0  0  0  0  0  0  0  0  0  0
    1.6040    8.1150   18.9040 C   0  0  1  0  0  0  0  0  0  0  0  0
   -0.2800   10.7070   23.1790 H   0  0  0  0  0  0  0  0  0  0  0  0
    0.7480    8.5060   23.5430 H   0  0  0  0  0  0  0  0  0  0  0  0
    1.6670    7.2000   21.6340 H   0  0  0  0  0  0  0  0  0  0  0  0
    0.8840   11.3630   18.3060 H   0  0  0  0  0  0  0  0  0  0  0  0
   -0.3920   10.1140   18.0950 H   0  0  0  0  0  0  0  0  0  0  0  0
    2.6370    9.8210   18.0190 H   0  0  0  0  0  0  0  0  0  0  0  0
    1.4600    9.0840   16.9320 H   0  0  0  0  0  0  0  0  0  0  0  0
    0.8280    7.4140   18.5710 H   0  0  0  0  0  0  0  0  0  0  0  0
    0.1290   13.2680   20.7070 C   0  0  0  0  0  0  0  0  0  0  0  0
   -0.5190   14.4540   20.5380 N   0  0  0  0  0  0  0  0  0  0  0  0
   -1.8730   14.3830   20.4640 C   0  0  0  0  0  0  0  0  0  0  0  0
   -2.5650   13.1830   20.5430 C   0  0  0  0  0  0  0  0  0  0  0  0
   -4.4540   13.1770   20.3990 Br  0  0  0  0  0  0  0  0  0  0  0  0
   -1.9300   12.0040   20.7190 N   0  0  0  0  0  0  0  0  0  0  0  0
   -0.5730   12.0520   20.8160 C   0  0  0  0  0  0  0  0  0  0  0  0
   -2.3840   15.3300   20.3310 H   0  0  0  0  0  0  0  0  0  0  0  0
    1.6300   13.3390   20.7510 C   0  0  0  0  0  0  0  0  0  0  0  0
    2.0630   12.3360   20.7270 H   0  0  0  0  0  0  0  0  0  0  0  0
    2.0090   13.9270   19.9100 H   0  0  0  0  0  0  0  0  0  0  0  0
    1.9710   13.8260   21.6740 H   0  0  0  0  0  0  0  0  0  0  0  0
    2.8780    7.4410   18.9920 N   0  0  0  0  0  0  0  0  0  0  0  0
    3.0610    6.2450   18.3520 C   0  0  0  0  0  0  0  0  0  0  0  0
    2.1860    5.6670   17.7250 O   0  0  0  0  0  0  0  0  0  0  0  0
    4.3220    5.7570   18.5480 N   0  0  0  0  0  0  0  0  0  0  0  0
    3.6930    8.0270   19.0590 H   0  0  0  0  0  0  0  0  0  0  0  0
    4.8280    6.1480   19.3240 H   0  0  0  0  0  0  0  0  0  0  0  0
    4.7170    4.4350   18.0990 C   0  0  0  0  0  0  0  0  0  0  0  0
    5.3860    3.9640   18.8310 H   0  0  0  0  0  0  0  0  0  0  0  0
    3.7950    3.8460   18.0780 H   0  0  0  0  0  0  0  0  0  0  0  0
    5.4030    4.5030   16.7530 C   0  0  0  0  0  0  0  0  0  0  0  0
    4.6380    4.2440   15.5930 C   0  0  0  0  0  0  0  0  0  0  0  0
    5.2240    4.2450   14.3300 C   0  0  0  0  0  0  0  0  0  0  0  0
    6.5740    4.5280   14.2060 C   0  0  0  0  0  0  0  0  0  0  0  0
    7.1260    4.5520   12.9920 F   0  0  0  0  0  0  0  0  0  0  0  0
    7.3540    4.8000   15.3230 C   0  0  0  0  0  0  0  0  0  0  0  0
    6.7780    4.7740   16.5970 C   0  0  0  0  0  0  0  0  0  0  0  0
    3.5640    4.0470   15.6740 H   0  0  0  0  0  0  0  0  0  0  0  0
    4.6320    4.0290   13.4440 H   0  0  0  0  0  0  0  0  0  0  0  0
    8.4060    5.0560   15.1870 H   0  0  0  0  0  0  0  0  0  0  0  0
    7.6640    5.0730   17.7520 C   0  0  0  0  0  0  0  0  0  0  0  0
    8.5240    4.0760   18.1120 N   0  0  0  0  0  0  0  0  0  0  0  0
    7.6270    6.1480   18.3370 O   0  0  0  0  0  0  0  0  0  0  0  0
    8.5270    3.1680   17.6750 H   0  0  0  0  0  0  0  0  0  0  0  0
    9.1390    4.2430   18.8970 H   0  0  0  0  0  0  0  0  0  0  0  0
  1  2  1  0  0  0  0
  2  3  2  0  0  0  0
  2 10  1  0  0  0  0
  3 11  1  0  0  0  0
  4 12  1  0  0  0  0
  4  3  1  0  0  0  0
  5  4  2  0  0  0  0
  6  5  1  0  0  0  0
  6  1  2  0  0  0  0
  7  6  1  0  0  0  0
  8 15  1  0  0  0  0
  8  7  1  0  0  0  0
  8  9  1  0  0  0  0
  9 17  1  6  0  0  0
  9 30  1  0  0  0  0
  9  5  1  0  0  0  0
 13  7  1  0  0  0  0
 14  7  1  0  0  0  0
 16  8  1  0  0  0  0
 18 26  1  0  0  0  0
 18 24  1  0  0  0  0
 19 18  2  0  0  0  0
 20 19  1  0  0  0  0
 20 21  2  0  0  0  0
 21 23  1  0  0  0  0
 22 21  1  0  0  0  0
 23 24  2  0  0  0  0
 24  1  1  0  0  0  0
 25 20  1  0  0  0  0
 26 29  1  0  0  0  0
 27 26  1  0  0  0  0
 28 26  1  0  0  0  0
 30 34  1  0  0  0  0
 31 33  1  0  0  0  0
 31 30  1  0  0  0  0
 32 31  2  0  0  0  0
 33 35  1  0  0  0  0
 36 33  1  0  0  0  0
 36 37  1  0  0  0  0
 38 36  1  0  0  0  0
 39 36  1  0  0  0  0
 40 46  1  0  0  0  0
 40 39  2  0  0  0  0
 41 40  1  0  0  0  0
 42 41  2  0  0  0  0
 42 44  1  0  0  0  0
 43 42  1  0  0  0  0
 44 45  2  0  0  0  0
 45 39  1  0  0  0  0
 45 49  1  0  0  0  0
 47 41  1  0  0  0  0
 48 44  1  0  0  0  0
 49 50  1  0  0  0  0
 49 51  2  0  0  0  0
 50 53  1  0  0  0  0
 52 50  1  0  0  0  0
M  END
>  <MODEL>
2

>  <REMARK>
 VINA RESULT:    -9.190      1.775      2.364
 INTER + INTRA:         -11.984
 INTER:                 -10.755
 INTRA:                  -1.229
 UNBOUND:                 0.161
  Name = 
  6 active torsions:
  status: ('A' for Active; 'I' for Inactive)
    1  A    between atoms: C_1  and  C_2
    2  A    between atoms: C_8  and  C_9
    3  A    between atoms: C_17  and  N_18
    4  A    between atoms: N_21  and  C_22
    5  A    between atoms: C_22  and  C_23
    6  A    between atoms: C_29  and  C_30
                            x       y       z     vdW  Elec       q    Type
                         _______ _______ _______ _____ _____    ______ ____

>  <TORSDO>
F 6

$$$$
=
 OpenBabel07192307433D

 53 56  0  0  1  0  0  0  0  0999 V2000
   -0.5100   11.0520   22.1860 C   0  0  0  0  0  0  0  0  0  0  0  0
   -0.0060   10.0410   23.0290 C   0  0  0  0  0  0  0  0  0  0  0  0
    0.7440    8.9660   22.5240 C   0  0  0  0  0  0  0  0  0  0  0  0
    1.0100    8.8660   21.1610 C   0  0  0  0  0  0  0  0  0  0  0  0
    0.5320    9.8590   20.3210 C   0  0  0  0  0  0  0  0  0  0  0  0
   -0.2200   10.9340   20.8250 C   0  0  0  0  0  0  0  0  0  0  0  0
   -0.6890   11.8150   19.6980 C   0  0  0  0  0  0  0  0  0  0  0  0
    0.2600   11.4010   18.5670 C   0  0  0  0  0  0  0  0  0  0  0  0
    0.6190    9.9250   18.8230 C   0  0  1  0  0  0  0  0  0  0  0  0
   -0.2200   10.0650   24.0980 H   0  0  0  0  0  0  0  0  0  0  0  0
    1.0990    8.1960   23.2030 H   0  0  0  0  0  0  0  0  0  0  0  0
    1.5640    8.0190   20.7640 H   0  0  0  0  0  0  0  0  0  0  0  0
   -0.5880   12.8850   19.9220 H   0  0  0  0  0  0  0  0  0  0  0  0
   -1.7280   11.5790   19.4450 H   0  0  0  0  0  0  0  0  0  0  0  0
    1.1630   12.0260   18.6060 H   0  0  0  0  0  0  0  0  0  0  0  0
   -0.1900   11.5530   17.5810 H   0  0  0  0  0  0  0  0  0  0  0  0
   -0.1400    9.2660   18.3820 H   0  0  0  0  0  0  0  0  0  0  0  0
   -0.9370   13.5040   22.6850 C   0  0  0  0  0  0  0  0  0  0  0  0
   -1.7150   14.4830   23.2250 N   0  0  0  0  0  0  0  0  0  0  0  0
   -2.8870   14.0710   23.7740 C   0  0  0  0  0  0  0  0  0  0  0  0
   -3.2840   12.7420   23.7810 C   0  0  0  0  0  0  0  0  0  0  0  0
   -4.9520   12.2640   24.5420 Br  0  0  0  0  0  0  0  0  0  0  0  0
   -2.5140   11.7640   23.2550 N   0  0  0  0  0  0  0  0  0  0  0  0
   -1.3250   12.1510   22.7170 C   0  0  0  0  0  0  0  0  0  0  0  0
   -3.5030   14.8540   24.2030 H   0  0  0  0  0  0  0  0  0  0  0  0
    0.3430   13.9610   22.0440 C   0  0  0  0  0  0  0  0  0  0  0  0
    1.1610   13.9510   22.7680 H   0  0  0  0  0  0  0  0  0  0  0  0
    0.5940   13.3210   21.1930 H   0  0  0  0  0  0  0  0  0  0  0  0
    0.2460   14.9870   21.6660 H   0  0  0  0  0  0  0  0  0  0  0  0
    1.9290    9.5760   18.3250 N   0  0  0  0  0  0  0  0  0  0  0  0
    2.1490    8.3310   17.8000 C   0  0  0  0  0  0  0  0  0  0  0  0
    1.3030    7.4510   17.7560 O   0  0  0  0  0  0  0  0  0  0  0  0
    3.4420    8.1820   17.3840 N   0  0  0  0  0  0  0  0  0  0  0  0
    2.4670   10.3220   17.9170 H   0  0  0  0  0  0  0  0  0  0  0  0
    4.1020    8.8410   17.7590 H   0  0  0  0  0  0  0  0  0  0  0  0
    3.9630    6.9070   16.9280 C   0  0  0  0  0  0  0  0  0  0  0  0
    3.2010    6.1220   17.0270 H   0  0  0  0  0  0  0  0  0  0  0  0
    4.1570    7.0360   15.8590 H   0  0  0  0  0  0  0  0  0  0  0  0
    5.1990    6.5180   17.7080 C   0  0  0  0  0  0  0  0  0  0  0  0
    6.4390    7.0760   17.3270 C   0  0  0  0  0  0  0  0  0  0  0  0
    7.6190    6.7200   17.9760 C   0  0  0  0  0  0  0  0  0  0  0  0
    7.5710    5.8220   19.0290 C   0  0  0  0  0  0  0  0  0  0  0  0
    8.7000    5.5010   19.6650 F   0  0  0  0  0  0  0  0  0  0  0  0
    6.3670    5.2620   19.4390 C   0  0  0  0  0  0  0  0  0  0  0  0
    5.1830    5.5950   18.7740 C   0  0  0  0  0  0  0  0  0  0  0  0
    6.4880    7.8090   16.5150 H   0  0  0  0  0  0  0  0  0  0  0  0
    8.5710    7.1420   17.6670 H   0  0  0  0  0  0  0  0  0  0  0  0
    6.3600    4.5860   20.2960 H   0  0  0  0  0  0  0  0  0  0  0  0
    3.9280    4.9640   19.2600 C   0  0  0  0  0  0  0  0  0  0  0  0
    3.1300    5.7550   20.0350 N   0  0  0  0  0  0  0  0  0  0  0  0
    3.6290    3.8110   18.9770 O   0  0  0  0  0  0  0  0  0  0  0  0
    3.3910    6.6850   20.3210 H   0  0  0  0  0  0  0  0  0  0  0  0
    2.2710    5.3580   20.3870 H   0  0  0  0  0  0  0  0  0  0  0  0
  1 24  1  0  0  0  0
  1  2  1  0  0  0  0
  2 10  1  0  0  0  0
  3  2  2  0  0  0  0
  3 11  1  0  0  0  0
  4  3  1  0  0  0  0
  5  6  1  0  0  0  0
  5  4  2  0  0  0  0
  6  1  2  0  0  0  0
  7 13  1  0  0  0  0
  7  6  1  0  0  0  0
  8 15  1  0  0  0  0
  8  9  1  0  0  0  0
  8  7  1  0  0  0  0
  9 17  1  6  0  0  0
  9  5  1  0  0  0  0
 12  4  1  0  0  0  0
 14  7  1  0  0  0  0
 16  8  1  0  0  0  0
 18 24  2  0  0  0  0
 18 19  1  0  0  0  0
 19 20  2  0  0  0  0
 20 21  1  0  0  0  0
 20 25  1  0  0  0  0
 21 22  1  0  0  0  0
 23 21  2  0  0  0  0
 24 23  1  0  0  0  0
 26 18  1  0  0  0  0
 26 27  1  0  0  0  0
 28 26  1  0  0  0  0
 29 26  1  0  0  0  0
 30  9  1  0  0  0  0
 31 30  1  0  0  0  0
 32 31  2  0  0  0  0
 33 35  1  0  0  0  0
 33 31  1  0  0  0  0
 34 30  1  0  0  0  0
 36 37  1  0  0  0  0
 36 33  1  0  0  0  0
 36 39  1  0  0  0  0
 38 36  1  0  0  0  0
 39 45  1  0  0  0  0
 40 39  2  0  0  0  0
 40 41  1  0  0  0  0
 41 42  2  0  0  0  0
 42 44  1  0  0  0  0
 42 43  1  0  0  0  0
 44 48  1  0  0  0  0
 45 49  1  0  0  0  0
 45 44  2  0  0  0  0
 46 40  1  0  0  0  0
 47 41  1  0  0  0  0
 49 50  1  0  0  0  0
 50 52  1  0  0  0  0
 50 53  1  0  0  0  0
 51 49  2  0  0  0  0
M  END
>  <MODEL>
3

>  <REMARK>
 VINA RESULT:    -8.891      2.271      2.636
 INTER + INTRA:         -11.589
 INTER:                 -10.714
 INTRA:                  -0.876
 UNBOUND:                 0.161
  Name = 
  6 active torsions:
  status: ('A' for Active; 'I' for Inactive)
    1  A    between atoms: C_1  and  C_2
    2  A    between atoms: C_8  and  C_9
    3  A    between atoms: C_17  and  N_18
    4  A    between atoms: N_21  and  C_22
    5  A    between atoms: C_22  and  C_23
    6  A    between atoms: C_29  and  C_30
                            x       y       z     vdW  Elec       q    Type
                         _______ _______ _______ _____ _____    ______ ____

>  <TORSDO>
F 6

$$$$
=
 OpenBabel07192307433D

 53 56  0  0  1  0  0  0  0  0999 V2000
    2.6450    6.2460   19.3510 C   0  0  0  0  0  0  0  0  0  0  0  0
    2.0830    5.7940   20.5620 C   0  0  0  0  0  0  0  0  0  0  0  0
    1.2730    6.6260   21.3540 C   0  0  0  0  0  0  0  0  0  0  0  0
    1.0040    7.9340   20.9620 C   0  0  0  0  0  0  0  0  0  0  0  0
    1.5400    8.3880   19.7680 C   0  0  0  0  0  0  0  0  0  0  0  0
    2.3510    7.5590   18.9750 C   0  0  0  0  0  0  0  0  0  0  0  0
    2.8710    8.3210   17.7870 C   0  0  0  0  0  0  0  0  0  0  0  0
    1.9020    9.5090   17.7320 C   0  0  0  0  0  0  0  0  0  0  0  0
    1.4590    9.7700   19.1840 C   0  0  1  0  0  0  0  0  0  0  0  0
    2.2960    4.7870   20.9200 H   0  0  0  0  0  0  0  0  0  0  0  0
    0.8730    6.2480   22.2910 H   0  0  0  0  0  0  0  0  0  0  0  0
    0.4030    8.5890   21.5890 H   0  0  0  0  0  0  0  0  0  0  0  0
    2.8310    7.7400   16.8560 H   0  0  0  0  0  0  0  0  0  0  0  0
    3.8960    8.6590   17.9760 H   0  0  0  0  0  0  0  0  0  0  0  0
    1.0360    9.2390   17.1110 H   0  0  0  0  0  0  0  0  0  0  0  0
    2.3620   10.3900   17.2740 H   0  0  0  0  0  0  0  0  0  0  0  0
    2.1800   10.4250   19.6910 H   0  0  0  0  0  0  0  0  0  0  0  0
    3.0540    4.3600   17.7010 C   0  0  0  0  0  0  0  0  0  0  0  0
    3.9120    3.5630   17.0050 N   0  0  0  0  0  0  0  0  0  0  0  0
    5.2330    3.8330   17.1680 C   0  0  0  0  0  0  0  0  0  0  0  0
    5.6930    4.8580   17.9810 C   0  0  0  0  0  0  0  0  0  0  0  0
    7.5550    5.1800   18.1230 Br  0  0  0  0  0  0  0  0  0  0  0  0
    4.8490    5.6470   18.6810 N   0  0  0  0  0  0  0  0  0  0  0  0
    3.5200    5.3840   18.5490 C   0  0  0  0  0  0  0  0  0  0  0  0
    5.9120    3.1950   16.6130 H   0  0  0  0  0  0  0  0  0  0  0  0
    1.5910    4.0900   17.4940 C   0  0  0  0  0  0  0  0  0  0  0  0
    0.9870    4.6990   18.1720 H   0  0  0  0  0  0  0  0  0  0  0  0
    1.3070    4.2970   16.4580 H   0  0  0  0  0  0  0  0  0  0  0  0
    1.3550    3.0370   17.6950 H   0  0  0  0  0  0  0  0  0  0  0  0
    0.1320   10.3340   19.2680 N   0  0  0  0  0  0  0  0  0  0  0  0
   -0.0320   11.6350   19.6610 C   0  0  0  0  0  0  0  0  0  0  0  0
    0.8870   12.3660   19.9960 O   0  0  0  0  0  0  0  0  0  0  0  0
   -1.3510   11.9920   19.6830 N   0  0  0  0  0  0  0  0  0  0  0  0
   -0.5440    9.9910   18.6060 H   0  0  0  0  0  0  0  0  0  0  0  0
   -2.0090   11.2330   19.7020 H   0  0  0  0  0  0  0  0  0  0  0  0
   -1.7960   13.2690   20.2070 C   0  0  0  0  0  0  0  0  0  0  0  0
   -0.9340   13.9040   20.4560 H   0  0  0  0  0  0  0  0  0  0  0  0
   -2.3270   13.7540   19.3830 H   0  0  0  0  0  0  0  0  0  0  0  0
   -2.6590   13.0800   21.4350 C   0  0  0  0  0  0  0  0  0  0  0  0
   -2.0240   12.8550   22.6760 C   0  0  0  0  0  0  0  0  0  0  0  0
   -2.7650   12.6260   23.8330 C   0  0  0  0  0  0  0  0  0  0  0  0
   -4.1480   12.6450   23.7690 C   0  0  0  0  0  0  0  0  0  0  0  0
   -4.8550   12.4500   24.8840 F   0  0  0  0  0  0  0  0  0  0  0  0
   -4.8070   12.8750   22.5680 C   0  0  0  0  0  0  0  0  0  0  0  0
   -4.0690   13.0780   21.3980 C   0  0  0  0  0  0  0  0  0  0  0  0
   -0.9310   12.8660   22.7470 H   0  0  0  0  0  0  0  0  0  0  0  0
   -2.2690   12.4380   24.7810 H   0  0  0  0  0  0  0  0  0  0  0  0
   -5.8970   12.9200   22.5590 H   0  0  0  0  0  0  0  0  0  0  0  0
   -4.8300   13.3200   20.1450 C   0  0  0  0  0  0  0  0  0  0  0  0
   -5.1470   14.6230   19.8870 N   0  0  0  0  0  0  0  0  0  0  0  0
   -5.1470   12.4090   19.3910 O   0  0  0  0  0  0  0  0  0  0  0  0
   -4.9410   15.3750   20.5250 H   0  0  0  0  0  0  0  0  0  0  0  0
   -5.6690   14.8250   19.0460 H   0  0  0  0  0  0  0  0  0  0  0  0
  1  2  1  0  0  0  0
  2 10  1  0  0  0  0
  2  3  2  0  0  0  0
  3 11  1  0  0  0  0
  4  3  1  0  0  0  0
  4 12  1  0  0  0  0
  5  4  2  0  0  0  0
  6  1  2  0  0  0  0
  6  5  1  0  0  0  0
  7 14  1  0  0  0  0
  7  6  1  0  0  0  0
  8  7  1  0  0  0  0
  8  9  1  0  0  0  0
  9 30  1  0  0  0  0
  9 17  1  1  0  0  0
  9  5  1  0  0  0  0
 13  7  1  0  0  0  0
 15  8  1  0  0  0  0
 16  8  1  0  0  0  0
 18 24  1  0  0  0  0
 19 20  1  0  0  0  0
 19 18  2  0  0  0  0
 20 21  2  0  0  0  0
 21 22  1  0  0  0  0
 21 23  1  0  0  0  0
 24 23  2  0  0  0  0
 24  1  1  0  0  0  0
 25 20  1  0  0  0  0
 26 29  1  0  0  0  0
 26 18  1  0  0  0  0
 26 27  1  0  0  0  0
 28 26  1  0  0  0  0
 30 31  1  0  0  0  0
 31 33  1  0  0  0  0
 31 32  2  0  0  0  0
 33 35  1  0  0  0  0
 33 36  1  0  0  0  0
 34 30  1  0  0  0  0
 36 37  1  0  0  0  0
 36 39  1  0  0  0  0
 38 36  1  0  0  0  0
 39 40  1  0  0  0  0
 40 46  1  0  0  0  0
 40 41  2  0  0  0  0
 41 47  1  0  0  0  0
 42 41  1  0  0  0  0
 42 43  1  0  0  0  0
 44 42  2  0  0  0  0
 45 39  2  0  0  0  0
 45 44  1  0  0  0  0
 48 44  1  0  0  0  0
 49 45  1  0  0  0  0
 50 49  1  0  0  0  0
 50 52  1  0  0  0  0
 51 49  2  0  0  0  0
 53 50  1  0  0  0  0
M  END
>  <MODEL>
4

>  <REMARK>
 VINA RESULT:    -8.886      4.998     10.503
 INTER + INTRA:         -11.583
 INTER:                 -10.516
 INTRA:                  -1.066
 UNBOUND:                 0.161
  Name = 
  6 active torsions:
  status: ('A' for Active; 'I' for Inactive)
    1  A    between atoms: C_1  and  C_2
    2  A    between atoms: C_8  and  C_9
    3  A    between atoms: C_17  and  N_18
    4  A    between atoms: N_21  and  C_22
    5  A    between atoms: C_22  and  C_23
    6  A    between atoms: C_29  and  C_30
                            x       y       z     vdW  Elec       q    Type
                         _______ _______ _______ _____ _____    ______ ____

>  <TORSDO>
F 6

$$$$
=
 OpenBabel07192307433D

 53 56  0  0  1  0  0  0  0  0999 V2000
    2.6390    6.2260   19.3360 C   0  0  0  0  0  0  0  0  0  0  0  0
    2.1150    5.7510   20.5560 C   0  0  0  0  0  0  0  0  0  0  0  0
    1.2470    6.5320   21.3380 C   0  0  0  0  0  0  0  0  0  0  0  0
    0.8780    7.8100   20.9280 C   0  0  0  0  0  0  0  0  0  0  0  0
    1.3750    8.2850   19.7240 C   0  0  0  0  0  0  0  0  0  0  0  0
    2.2450    7.5060   18.9420 C   0  0  0  0  0  0  0  0  0  0  0  0
    2.7030    8.2880   17.7400 C   0  0  0  0  0  0  0  0  0  0  0  0
    1.6470    9.3980   17.6710 C   0  0  0  0  0  0  0  0  0  0  0  0
    1.1890    9.6470   19.1210 C   0  0  1  0  0  0  0  0  0  0  0  0
    2.4050    4.7690   20.9290 H   0  0  0  0  0  0  0  0  0  0  0  0
    0.8790    6.1380   22.2820 H   0  0  0  0  0  0  0  0  0  0  0  0
    0.2310    8.4260   21.5470 H   0  0  0  0  0  0  0  0  0  0  0  0
    2.7050    7.6920   16.8180 H   0  0  0  0  0  0  0  0  0  0  0  0
    3.7000    8.7050   17.9210 H   0  0  0  0  0  0  0  0  0  0  0  0
    0.8020    9.0540   17.0570 H   0  0  0  0  0  0  0  0  0  0  0  0
    2.0370   10.3040   17.1980 H   0  0  0  0  0  0  0  0  0  0  0  0
    1.8590   10.3630   19.6150 H   0  0  0  0  0  0  0  0  0  0  0  0
    3.1800    4.3910   17.6680 C   0  0  0  0  0  0  0  0  0  0  0  0
    4.0930    3.6480   16.9820 N   0  0  0  0  0  0  0  0  0  0  0  0
    5.3950    3.9760   17.1850 C   0  0  0  0  0  0  0  0  0  0  0  0
    5.7840    5.0080   18.0260 C   0  0  0  0  0  0  0  0  0  0  0  0
    7.6240    5.4150   18.2240 Br  0  0  0  0  0  0  0  0  0  0  0  0
    4.8860    5.7440   18.7160 N   0  0  0  0  0  0  0  0  0  0  0  0
    3.5750    5.4200   18.5440 C   0  0  0  0  0  0  0  0  0  0  0  0
    6.1180    3.3810   16.6380 H   0  0  0  0  0  0  0  0  0  0  0  0
    1.7370    4.0550   17.4160 C   0  0  0  0  0  0  0  0  0  0  0  0
    1.1070    4.4390   18.2230 H   0  0  0  0  0  0  0  0  0  0  0  0
    1.4090    4.4720   16.4590 H   0  0  0  0  0  0  0  0  0  0  0  0
    1.5910    2.9680   17.3700 H   0  0  0  0  0  0  0  0  0  0  0  0
   -0.1770   10.1100   19.2010 N   0  0  0  0  0  0  0  0  0  0  0  0
   -0.4350   11.4270   19.4700 C   0  0  0  0  0  0  0  0  0  0  0  0
    0.4300   12.2590   19.6940 O   0  0  0  0  0  0  0  0  0  0  0  0
   -1.7780   11.6790   19.5090 N   0  0  0  0  0  0  0  0  0  0  0  0
   -0.8430    9.6500   18.6030 H   0  0  0  0  0  0  0  0  0  0  0  0
   -2.3710   10.8760   19.6280 H   0  0  0  0  0  0  0  0  0  0  0  0
   -2.3100   12.9630   19.9220 C   0  0  0  0  0  0  0  0  0  0  0  0
   -1.5050   13.7080   19.9950 H   0  0  0  0  0  0  0  0  0  0  0  0
   -2.9710   13.2810   19.1090 H   0  0  0  0  0  0  0  0  0  0  0  0
   -3.0220   12.8530   21.2510 C   0  0  0  0  0  0  0  0  0  0  0  0
   -4.4350   12.8690   21.2620 C   0  0  0  0  0  0  0  0  0  0  0  0
   -5.1460   12.8190   22.4580 C   0  0  0  0  0  0  0  0  0  0  0  0
   -4.4570   12.7260   23.6550 C   0  0  0  0  0  0  0  0  0  0  0  0
   -5.1430   12.6530   24.7980 F   0  0  0  0  0  0  0  0  0  0  0  0
   -3.0690   12.6950   23.6820 C   0  0  0  0  0  0  0  0  0  0  0  0
   -2.3480   12.7730   22.4870 C   0  0  0  0  0  0  0  0  0  0  0  0
   -4.9930   12.9140   20.3200 H   0  0  0  0  0  0  0  0  0  0  0  0
   -6.2330   12.8480   22.4580 H   0  0  0  0  0  0  0  0  0  0  0  0
   -2.5580   12.5840   24.6410 H   0  0  0  0  0  0  0  0  0  0  0  0
   -0.8650   12.7340   22.5810 C   0  0  0  0  0  0  0  0  0  0  0  0
   -0.3140   11.4930   22.7260 N   0  0  0  0  0  0  0  0  0  0  0  0
   -0.1840   13.7500   22.5270 O   0  0  0  0  0  0  0  0  0  0  0  0
   -0.8650   10.6560   22.8280 H   0  0  0  0  0  0  0  0  0  0  0  0
    0.6920   11.4290   22.7980 H   0  0  0  0  0  0  0  0  0  0  0  0
  1  2  1  0  0  0  0
  2 10  1  0  0  0  0
  2  3  2  0  0  0  0
  3 11  1  0  0  0  0
  4  3  1  0  0  0  0
  4 12  1  0  0  0  0
  5  4  2  0  0  0  0
  6  1  2  0  0  0  0
  6  5  1  0  0  0  0
  7 14  1  0  0  0  0
  7  6  1  0  0  0  0
  8  7  1  0  0  0  0
  8  9  1  0  0  0  0
  9 30  1  0  0  0  0
  9 17  1  1  0  0  0
  9  5  1  0  0  0  0
 13  7  1  0  0  0  0
 15  8  1  0  0  0  0
 16  8  1  0  0  0  0
 18 24  1  0  0  0  0
 19 20  1  0  0  0  0
 19 18  2  0  0  0  0
 20 21  2  0  0  0  0
 21 22  1  0  0  0  0
 21 23  1  0  0  0  0
 24 23  2  0  0  0  0
 24  1  1  0  0  0  0
 25 20  1  0  0  0  0
 26 18  1  0  0  0  0
 26 27  1  0  0  0  0
 28 26  1  0  0  0  0
 29 26  1  0  0  0  0
 30 31  1  0  0  0  0
 31 33  1  0  0  0  0
 31 32  2  0  0  0  0
 33 35  1  0  0  0  0
 33 36  1  0  0  0  0
 34 30  1  0  0  0  0
 36 37  1  0  0  0  0
 36 39  1  0  0  0  0
 38 36  1  0  0  0  0
 39 40  2  0  0  0  0
 39 45  1  0  0  0  0
 40 41  1  0  0  0  0
 41 47  1  0  0  0  0
 41 42  2  0  0  0  0
 42 44  1  0  0  0  0
 42 43  1  0  0  0  0
 44 48  1  0  0  0  0
 45 49  1  0  0  0  0
 45 44  2  0  0  0  0
 46 40  1  0  0  0  0
 49 50  1  0  0  0  0
 50 53  1  0  0  0  0
 50 52  1  0  0  0  0
 51 49  2  0  0  0  0
M  END
>  <MODEL>
5

>  <REMARK>
 VINA RESULT:    -8.695      5.005     10.380
 INTER + INTRA:         -11.330
 INTER:                 -10.348
 INTRA:                  -0.982
 UNBOUND:                 0.161
  Name = 
  6 active torsions:
  status: ('A' for Active; 'I' for Inactive)
    1  A    between atoms: C_1  and  C_2
    2  A    between atoms: C_8  and  C_9
    3  A    between atoms: C_17  and  N_18
    4  A    between atoms: N_21  and  C_22
    5  A    between atoms: C_22  and  C_23
    6  A    between atoms: C_29  and  C_30
                            x       y       z     vdW  Elec       q    Type
                         _______ _______ _______ _____ _____    ______ ____

>  <TORSDO>
F 6

$$$$
=
 OpenBabel07192307433D

 53 56  0  0  1  0  0  0  0  0999 V2000
    0.7340   10.8170   20.4160 C   0  0  0  0  0  0  0  0  0  0  0  0
    0.4930   10.5160   21.7710 C   0  0  0  0  0  0  0  0  0  0  0  0
    0.7450    9.2380   22.2980 C   0  0  0  0  0  0  0  0  0  0  0  0
    1.2410    8.2220   21.4870 C   0  0  0  0  0  0  0  0  0  0  0  0
    1.4950    8.5070   20.1550 C   0  0  0  0  0  0  0  0  0  0  0  0
    1.2420    9.7840   19.6260 C   0  0  0  0  0  0  0  0  0  0  0  0
    1.5180    9.7980   18.1460 C   0  0  0  0  0  0  0  0  0  0  0  0
    2.3940    8.5500   17.9830 C   0  0  0  0  0  0  0  0  0  0  0  0
    1.9470    7.5630   19.0770 C   0  0  1  0  0  0  0  0  0  0  0  0
    0.0740   11.2740   22.4330 H   0  0  0  0  0  0  0  0  0  0  0  0
    0.5280    9.0390   23.3440 H   0  0  0  0  0  0  0  0  0  0  0  0
    1.4070    7.2240   21.8850 H   0  0  0  0  0  0  0  0  0  0  0  0
    2.0540   10.6990   17.8200 H   0  0  0  0  0  0  0  0  0  0  0  0
    0.5810    9.6960   17.5890 H   0  0  0  0  0  0  0  0  0  0  0  0
    3.4480    8.8290   18.1260 H   0  0  0  0  0  0  0  0  0  0  0  0
    2.3110    8.1220   16.9790 H   0  0  0  0  0  0  0  0  0  0  0  0
    1.0940    6.9680   18.7280 H   0  0  0  0  0  0  0  0  0  0  0  0
   -0.8700   12.6050   19.5920 C   0  0  0  0  0  0  0  0  0  0  0  0
   -1.0930   13.8330   19.0470 N   0  0  0  0  0  0  0  0  0  0  0  0
    0.0130   14.5810   18.8040 C   0  0  0  0  0  0  0  0  0  0  0  0
    1.2950   14.1400   19.0980 C   0  0  0  0  0  0  0  0  0  0  0  0
    2.7790   15.2670   18.7520 Br  0  0  0  0  0  0  0  0  0  0  0  0
    1.5250   12.9200   19.6310 N   0  0  0  0  0  0  0  0  0  0  0  0
    0.4320   12.1430   19.8650 C   0  0  0  0  0  0  0  0  0  0  0  0
   -0.1690   15.5580   18.3680 H   0  0  0  0  0  0  0  0  0  0  0  0
   -2.0950   11.7890   19.8980 C   0  0  0  0  0  0  0  0  0  0  0  0
   -2.9070   12.0440   19.2120 H   0  0  0  0  0  0  0  0  0  0  0  0
   -1.8700   10.7210   19.8250 H   0  0  0  0  0  0  0  0  0  0  0  0
   -2.4490   11.9820   20.9180 H   0  0  0  0  0  0  0  0  0  0  0  0
    3.0150    6.6930   19.5110 N   0  0  0  0  0  0  0  0  0  0  0  0
    3.5100    5.7440   18.6580 C   0  0  0  0  0  0  0  0  0  0  0  0
    3.0750    5.5450   17.5340 O   0  0  0  0  0  0  0  0  0  0  0  0
    4.5100    5.0170   19.2390 N   0  0  0  0  0  0  0  0  0  0  0  0
    3.6790    7.0850   20.1580 H   0  0  0  0  0  0  0  0  0  0  0  0
    4.5540    5.0560   20.2430 H   0  0  0  0  0  0  0  0  0  0  0  0
    5.0940    3.8560   18.5960 C   0  0  0  0  0  0  0  0  0  0  0  0
    5.8360    3.3830   19.2540 H   0  0  0  0  0  0  0  0  0  0  0  0
    4.2720    3.1440   18.4730 H   0  0  0  0  0  0  0  0  0  0  0  0
    5.7470    4.2340   17.2840 C   0  0  0  0  0  0  0  0  0  0  0  0
    5.2740    3.6290   16.0980 C   0  0  0  0  0  0  0  0  0  0  0  0
    5.8650    3.9010   14.8670 C   0  0  0  0  0  0  0  0  0  0  0  0
    6.9180    4.7980   14.8020 C   0  0  0  0  0  0  0  0  0  0  0  0
    7.4650    5.0740   13.6160 F   0  0  0  0  0  0  0  0  0  0  0  0
    7.4000    5.4210   15.9450 C   0  0  0  0  0  0  0  0  0  0  0  0
    6.8300    5.1320   17.1880 C   0  0  0  0  0  0  0  0  0  0  0  0
    4.4240    2.9390   16.1320 H   0  0  0  0  0  0  0  0  0  0  0  0
    5.5060    3.4190   13.9610 H   0  0  0  0  0  0  0  0  0  0  0  0
    8.2070    6.1510   15.8530 H   0  0  0  0  0  0  0  0  0  0  0  0
    7.3890    5.8310   18.3740 C   0  0  0  0  0  0  0  0  0  0  0  0
    7.6470    7.1620   18.2100 N   0  0  0  0  0  0  0  0  0  0  0  0
    7.5990    5.2500   19.4310 O   0  0  0  0  0  0  0  0  0  0  0  0
    7.5320    7.6390   17.3310 H   0  0  0  0  0  0  0  0  0  0  0  0
    8.0320    7.6680   18.9950 H   0  0  0  0  0  0  0  0  0  0  0  0
  1  2  1  0  0  0  0
  2  3  2  0  0  0  0
  2 10  1  0  0  0  0
  3 11  1  0  0  0  0
  4 12  1  0  0  0  0
  4  3  1  0  0  0  0
  5  4  2  0  0  0  0
  6  5  1  0  0  0  0
  6  1  2  0  0  0  0
  7  6  1  0  0  0  0
  8 15  1  0  0  0  0
  8  7  1  0  0  0  0
  8  9  1  0  0  0  0
  9 17  1  6  0  0  0
  9 30  1  0  0  0  0
  9  5  1  0  0  0  0
 13  7  1  0  0  0  0
 14  7  1  0  0  0  0
 16  8  1  0  0  0  0
 18 24  1  0  0  0  0
 18 26  1  0  0  0  0
 19 18  2  0  0  0  0
 20 19  1  0  0  0  0
 20 21  2  0  0  0  0
 21 23  1  0  0  0  0
 22 21  1  0  0  0  0
 23 24  2  0  0  0  0
 24  1  1  0  0  0  0
 25 20  1  0  0  0  0
 26 29  1  0  0  0  0
 27 26  1  0  0  0  0
 28 26  1  0  0  0  0
 30 34  1  0  0  0  0
 31 33  1  0  0  0  0
 31 30  1  0  0  0  0
 32 31  2  0  0  0  0
 33 35  1  0  0  0  0
 36 33  1  0  0  0  0
 36 37  1  0  0  0  0
 38 36  1  0  0  0  0
 39 36  1  0  0  0  0
 40 46  1  0  0  0  0
 40 39  2  0  0  0  0
 41 40  1  0  0  0  0
 42 41  2  0  0  0  0
 42 44  1  0  0  0  0
 43 42  1  0  0  0  0
 44 45  2  0  0  0  0
 45 39  1  0  0  0  0
 45 49  1  0  0  0  0
 47 41  1  0  0  0  0
 48 44  1  0  0  0  0
 49 51  2  0  0  0  0
 50 49  1  0  0  0  0
 50 53  1  0  0  0  0
 52 50  1  0  0  0  0
M  END
>  <MODEL>
6

>  <REMARK>
 VINA RESULT:    -8.555      2.455      3.212
 INTER + INTRA:         -11.146
 INTER:                 -11.098
 INTRA:                  -0.047
 UNBOUND:                 0.161
  Name = 
  6 active torsions:
  status: ('A' for Active; 'I' for Inactive)
    1  A    between atoms: C_1  and  C_2
    2  A    between atoms: C_8  and  C_9
    3  A    between atoms: C_17  and  N_18
    4  A    between atoms: N_21  and  C_22
    5  A    between atoms: C_22  and  C_23
    6  A    between atoms: C_29  and  C_30
                            x       y       z     vdW  Elec       q    Type
                         _______ _______ _______ _____ _____    ______ ____

>  <TORSDO>
F 6

$$$$
=
 OpenBabel07192307433D

 53 56  0  0  1  0  0  0  0  0999 V2000
   -2.1570   12.1060   20.3000 C   0  0  0  0  0  0  0  0  0  0  0  0
   -2.8230   11.8130   19.0920 C   0  0  0  0  0  0  0  0  0  0  0  0
   -2.2700   10.9400   18.1390 C   0  0  0  0  0  0  0  0  0  0  0  0
   -1.0350   10.3380   18.3620 C   0  0  0  0  0  0  0  0  0  0  0  0
   -0.3750   10.6070   19.5510 C   0  0  0  0  0  0  0  0  0  0  0  0
   -0.9260   11.4800   20.5040 C   0  0  0  0  0  0  0  0  0  0  0  0
    0.0280   11.6650   21.6530 C   0  0  0  0  0  0  0  0  0  0  0  0
    0.9550   10.4550   21.4840 C   0  0  0  0  0  0  0  0  0  0  0  0
    0.9900   10.1470   19.9750 C   0  0  1  0  0  0  0  0  0  0  0  0
   -3.7760   12.2890   18.8640 H   0  0  0  0  0  0  0  0  0  0  0  0
   -2.8030   10.7550   17.2110 H   0  0  0  0  0  0  0  0  0  0  0  0
   -0.5910    9.6870   17.6130 H   0  0  0  0  0  0  0  0  0  0  0  0
   -0.4710   11.6430   22.6310 H   0  0  0  0  0  0  0  0  0  0  0  0
    0.5820   12.6030   21.5340 H   0  0  0  0  0  0  0  0  0  0  0  0
    0.5380    9.6020   22.0390 H   0  0  0  0  0  0  0  0  0  0  0  0
    1.9520   10.6450   21.8920 H   0  0  0  0  0  0  0  0  0  0  0  0
    1.7550   10.7580   19.4790 H   0  0  0  0  0  0  0  0  0  0  0  0
   -2.4920   14.4360   21.2510 C   0  0  0  0  0  0  0  0  0  0  0  0
   -3.0140   15.2620   22.2000 N   0  0  0  0  0  0  0  0  0  0  0  0
   -3.7810   14.6640   23.1470 C   0  0  0  0  0  0  0  0  0  0  0  0
   -4.0340   13.3000   23.1540 C   0  0  0  0  0  0  0  0  0  0  0  0
   -5.1430   12.5580   24.4990 Br  0  0  0  0  0  0  0  0  0  0  0  0
   -3.5130   12.4730   22.2210 N   0  0  0  0  0  0  0  0  0  0  0  0
   -2.7240   13.0470   21.2720 C   0  0  0  0  0  0  0  0  0  0  0  0
   -4.1930   15.3260   23.9010 H   0  0  0  0  0  0  0  0  0  0  0  0
   -1.6740   15.1000   20.1790 C   0  0  0  0  0  0  0  0  0  0  0  0
   -2.0170   14.7940   19.1880 H   0  0  0  0  0  0  0  0  0  0  0  0
   -1.7340   16.1890   20.2720 H   0  0  0  0  0  0  0  0  0  0  0  0
   -0.6160   14.8210   20.2650 H   0  0  0  0  0  0  0  0  0  0  0  0
    1.2170    8.7470   19.6990 N   0  0  0  0  0  0  0  0  0  0  0  0
    2.1370    8.3800   18.7530 C   0  0  0  0  0  0  0  0  0  0  0  0
    2.7710    9.1740   18.0760 O   0  0  0  0  0  0  0  0  0  0  0  0
    2.2140    7.0220   18.6270 N   0  0  0  0  0  0  0  0  0  0  0  0
    1.1130    8.1130   20.4740 H   0  0  0  0  0  0  0  0  0  0  0  0
    1.4350    6.5030   18.9930 H   0  0  0  0  0  0  0  0  0  0  0  0
    3.0050    6.3870   17.5900 C   0  0  0  0  0  0  0  0  0  0  0  0
    2.5530    6.5580   16.6030 H   0  0  0  0  0  0  0  0  0  0  0  0
    3.9690    6.9060   17.5980 H   0  0  0  0  0  0  0  0  0  0  0  0
    3.1340    4.9010   17.8400 C   0  0  0  0  0  0  0  0  0  0  0  0
    1.9720    4.1010   17.7570 C   0  0  0  0  0  0  0  0  0  0  0  0
    2.0180    2.7350   18.0230 C   0  0  0  0  0  0  0  0  0  0  0  0
    3.2280    2.1470   18.3500 C   0  0  0  0  0  0  0  0  0  0  0  0
    3.2730    0.8330   18.5800 F   0  0  0  0  0  0  0  0  0  0  0  0
    4.3930    2.9000   18.4290 C   0  0  0  0  0  0  0  0  0  0  0  0
    4.3490    4.2770   18.1900 C   0  0  0  0  0  0  0  0  0  0  0  0
    1.0140    4.5490   17.4720 H   0  0  0  0  0  0  0  0  0  0  0  0
    1.1170    2.1300   17.9730 H   0  0  0  0  0  0  0  0  0  0  0  0
    5.3360    2.3980   18.6520 H   0  0  0  0  0  0  0  0  0  0  0  0
    5.6270    5.0270   18.2880 C   0  0  0  0  0  0  0  0  0  0  0  0
    6.1120    5.2070   19.5520 N   0  0  0  0  0  0  0  0  0  0  0  0
    6.2100    5.4510   17.2980 O   0  0  0  0  0  0  0  0  0  0  0  0
    5.6160    4.9140   20.3770 H   0  0  0  0  0  0  0  0  0  0  0  0
    6.9780    5.7180   19.6560 H   0  0  0  0  0  0  0  0  0  0  0  0
  1  6  1  0  0  0  0
  1 24  1  0  0  0  0
  2  1  2  0  0  0  0
  3  4  2  0  0  0  0
  3  2  1  0  0  0  0
  4  5  1  0  0  0  0
  5  9  1  0  0  0  0
  5  6  2  0  0  0  0
  6  7  1  0  0  0  0
  7 13  1  0  0  0  0
  8  7  1  0  0  0  0
  8 16  1  0  0  0  0
  8 15  1  0  0  0  0
  9 17  1  6  0  0  0
  9  8  1  0  0  0  0
 10  2  1  0  0  0  0
 11  3  1  0  0  0  0
 12  4  1  0  0  0  0
 14  7  1  0  0  0  0
 18 24  2  0  0  0  0
 18 19  1  0  0  0  0
 19 20  2  0  0  0  0
 20 21  1  0  0  0  0
 20 25  1  0  0  0  0
 21 22  1  0  0  0  0
 23 21  2  0  0  0  0
 24 23  1  0  0  0  0
 26 29  1  0  0  0  0
 26 28  1  0  0  0  0
 26 18  1  0  0  0  0
 27 26  1  0  0  0  0
 30  9  1  0  0  0  0
 30 34  1  0  0  0  0
 31 30  1  0  0  0  0
 32 31  2  0  0  0  0
 33 31  1  0  0  0  0
 33 35  1  0  0  0  0
 36 38  1  0  0  0  0
 36 39  1  0  0  0  0
 36 33  1  0  0  0  0
 37 36  1  0  0  0  0
 39 45  1  0  0  0  0
 40 39  2  0  0  0  0
 40 41  1  0  0  0  0
 41 42  2  0  0  0  0
 42 44  1  0  0  0  0
 42 43  1  0  0  0  0
 44 48  1  0  0  0  0
 45 49  1  0  0  0  0
 45 44  2  0  0  0  0
 46 40  1  0  0  0  0
 47 41  1  0  0  0  0
 49 50  1  0  0  0  0
 50 53  1  0  0  0  0
 50 52  1  0  0  0  0
 51 49  2  0  0  0  0
M  END
>  <MODEL>
7

>  <REMARK>
 VINA RESULT:    -8.551      2.388      3.430
 INTER + INTRA:         -11.140
 INTER:                 -10.140
 INTRA:                  -1.000
 UNBOUND:                 0.161
  Name = 
  6 active torsions:
  status: ('A' for Active; 'I' for Inactive)
    1  A    between atoms: C_1  and  C_2
    2  A    between atoms: C_8  and  C_9
    3  A    between atoms: C_17  and  N_18
    4  A    between atoms: N_21  and  C_22
    5  A    between atoms: C_22  and  C_23
    6  A    between atoms: C_29  and  C_30
                            x       y       z     vdW  Elec       q    Type
                         _______ _______ _______ _____ _____    ______ ____

>  <TORSDO>
F 6

$$$$
=
 OpenBabel07192307433D

 53 56  0  0  1  0  0  0  0  0999 V2000
   -1.2680   12.7140   20.5730 C   0  0  0  0  0  0  0  0  0  0  0  0
   -0.6730   13.5380   19.5960 C   0  0  0  0  0  0  0  0  0  0  0  0
    0.4880   13.1450   18.9090 C   0  0  0  0  0  0  0  0  0  0  0  0
    1.0920   11.9200   19.1800 C   0  0  0  0  0  0  0  0  0  0  0  0
    0.5110   11.0940   20.1290 C   0  0  0  0  0  0  0  0  0  0  0  0
   -0.6500   11.4860   20.8180 C   0  0  0  0  0  0  0  0  0  0  0  0
   -1.0170   10.4520   21.8480 C   0  0  0  0  0  0  0  0  0  0  0  0
   -0.2340    9.2300   21.3530 C   0  0  0  0  0  0  0  0  0  0  0  0
    1.0190    9.7790   20.6460 C   0  0  1  0  0  0  0  0  0  0  0  0
   -1.0950   14.5180   19.3780 H   0  0  0  0  0  0  0  0  0  0  0  0
    0.9290   13.8160   18.1770 H   0  0  0  0  0  0  0  0  0  0  0  0
    2.0080   11.6280   18.6720 H   0  0  0  0  0  0  0  0  0  0  0  0
   -2.0940   10.2420   21.8770 H   0  0  0  0  0  0  0  0  0  0  0  0
   -0.6690   10.7680   22.8380 H   0  0  0  0  0  0  0  0  0  0  0  0
   -0.8570    8.6650   20.6450 H   0  0  0  0  0  0  0  0  0  0  0  0
    0.0170    8.5470   22.1720 H   0  0  0  0  0  0  0  0  0  0  0  0
    1.8220    9.9550   21.3740 H   0  0  0  0  0  0  0  0  0  0  0  0
   -3.7770   12.9880   20.8440 C   0  0  0  0  0  0  0  0  0  0  0  0
   -4.8470   13.4420   21.5550 N   0  0  0  0  0  0  0  0  0  0  0  0
   -4.5600   14.0350   22.7420 C   0  0  0  0  0  0  0  0  0  0  0  0
   -3.2640   14.1690   23.2180 C   0  0  0  0  0  0  0  0  0  0  0  0
   -2.9610   14.9850   24.9010 Br  0  0  0  0  0  0  0  0  0  0  0  0
   -2.1970   13.7290   22.5150 N   0  0  0  0  0  0  0  0  0  0  0  0
   -2.4590   13.1480   21.3130 C   0  0  0  0  0  0  0  0  0  0  0  0
   -5.4150   14.3960   23.3030 H   0  0  0  0  0  0  0  0  0  0  0  0
   -4.0940   12.2960   19.5490 C   0  0  0  0  0  0  0  0  0  0  0  0
   -4.0430   13.0000   18.7140 H   0  0  0  0  0  0  0  0  0  0  0  0
   -3.4000   11.4680   19.3780 H   0  0  0  0  0  0  0  0  0  0  0  0
   -5.1080   11.8760   19.5670 H   0  0  0  0  0  0  0  0  0  0  0  0
    1.4880    8.9100   19.5920 N   0  0  0  0  0  0  0  0  0  0  0  0
    1.9020    7.6390   19.8890 C   0  0  0  0  0  0  0  0  0  0  0  0
    1.9420    7.1840   21.0220 O   0  0  0  0  0  0  0  0  0  0  0  0
    2.3110    6.9680   18.7720 N   0  0  0  0  0  0  0  0  0  0  0  0
    1.0600    9.0270   18.6880 H   0  0  0  0  0  0  0  0  0  0  0  0
    2.5310    7.5390   17.9740 H   0  0  0  0  0  0  0  0  0  0  0  0
    2.9330    5.6600   18.8410 C   0  0  0  0  0  0  0  0  0  0  0  0
    3.4540    5.5320   19.8010 H   0  0  0  0  0  0  0  0  0  0  0  0
    2.1070    4.9420   18.8250 H   0  0  0  0  0  0  0  0  0  0  0  0
    3.9080    5.4620   17.7030 C   0  0  0  0  0  0  0  0  0  0  0  0
    4.3130    6.5920   16.9590 C   0  0  0  0  0  0  0  0  0  0  0  0
    5.1720    6.4680   15.8700 C   0  0  0  0  0  0  0  0  0  0  0  0
    5.6560    5.2170   15.5260 C   0  0  0  0  0  0  0  0  0  0  0  0
    6.4980    5.1050   14.4970 F   0  0  0  0  0  0  0  0  0  0  0  0
    5.2900    4.0850   16.2420 C   0  0  0  0  0  0  0  0  0  0  0  0
    4.4060    4.1990   17.3200 C   0  0  0  0  0  0  0  0  0  0  0  0
    3.9600    7.5910   17.2370 H   0  0  0  0  0  0  0  0  0  0  0  0
    5.4660    7.3410   15.2930 H   0  0  0  0  0  0  0  0  0  0  0  0
    5.7190    3.1190   15.9680 H   0  0  0  0  0  0  0  0  0  0  0  0
    4.0530    2.9530   18.0470 C   0  0  0  0  0  0  0  0  0  0  0  0
    4.8550    2.6380   19.1070 N   0  0  0  0  0  0  0  0  0  0  0  0
    3.1000    2.2570   17.7190 O   0  0  0  0  0  0  0  0  0  0  0  0
    5.6730    3.1700   19.3530 H   0  0  0  0  0  0  0  0  0  0  0  0
    4.6460    1.7940   19.6220 H   0  0  0  0  0  0  0  0  0  0  0  0
  1  6  1  0  0  0  0
  1 24  1  0  0  0  0
  2  1  2  0  0  0  0
  3  4  2  0  0  0  0
  3  2  1  0  0  0  0
  4  5  1  0  0  0  0
  5  9  1  0  0  0  0
  5  6  2  0  0  0  0
  6  7  1  0  0  0  0
  7 13  1  0  0  0  0
  7 14  1  0  0  0  0
  8  7  1  0  0  0  0
  8 16  1  0  0  0  0
  9  8  1  0  0  0  0
  9 17  1  1  0  0  0
 10  2  1  0  0  0  0
 11  3  1  0  0  0  0
 12  4  1  0  0  0  0
 15  8  1  0  0  0  0
 18 24  2  0  0  0  0
 18 19  1  0  0  0  0
 19 20  2  0  0  0  0
 20 21  1  0  0  0  0
 20 25  1  0  0  0  0
 21 22  1  0  0  0  0
 23 21  2  0  0  0  0
 24 23  1  0  0  0  0
 26 29  1  0  0  0  0
 26 18  1  0  0  0  0
 27 26  1  0  0  0  0
 28 26  1  0  0  0  0
 30 31  1  0  0  0  0
 30  9  1  0  0  0  0
 31 32  2  0  0  0  0
 33 36  1  0  0  0  0
 33 31  1  0  0  0  0
 34 30  1  0  0  0  0
 35 33  1  0  0  0  0
 36 37  1  0  0  0  0
 38 36  1  0  0  0  0
 39 36  1  0  0  0  0
 40 46  1  0  0  0  0
 40 39  2  0  0  0  0
 41 40  1  0  0  0  0
 42 41  2  0  0  0  0
 42 44  1  0  0  0  0
 43 42  1  0  0  0  0
 44 45  2  0  0  0  0
 45 39  1  0  0  0  0
 45 49  1  0  0  0  0
 47 41  1  0  0  0  0
 48 44  1  0  0  0  0
 49 50  1  0  0  0  0
 50 52  1  0  0  0  0
 50 53  1  0  0  0  0
 51 49  2  0  0  0  0
M  END
>  <MODEL>
8

>  <REMARK>
 VINA RESULT:    -8.528      1.933      2.864
 INTER + INTRA:         -11.109
 INTER:                 -10.428
 INTRA:                  -0.681
 UNBOUND:                 0.161
  Name = 
  6 active torsions:
  status: ('A' for Active; 'I' for Inactive)
    1  A    between atoms: C_1  and  C_2
    2  A    between atoms: C_8  and  C_9
    3  A    between atoms: C_17  and  N_18
    4  A    between atoms: N_21  and  C_22
    5  A    between atoms: C_22  and  C_23
    6  A    between atoms: C_29  and  C_30
                            x       y       z     vdW  Elec       q    Type
                         _______ _______ _______ _____ _____    ______ ____

>  <TORSDO>
F 6

$$$$
=
 OpenBabel07192307433D

 53 56  0  0  1  0  0  0  0  0999 V2000
    0.1020   11.4670   21.0350 C   0  0  0  0  0  0  0  0  0  0  0  0
   -0.3630   11.2830   22.3530 C   0  0  0  0  0  0  0  0  0  0  0  0
   -0.3680   10.0170   22.9620 C   0  0  0  0  0  0  0  0  0  0  0  0
    0.0870    8.8970   22.2730 C   0  0  0  0  0  0  0  0  0  0  0  0
    0.5590    9.0640   20.9810 C   0  0  0  0  0  0  0  0  0  0  0  0
    0.5640   10.3300   20.3700 C   0  0  0  0  0  0  0  0  0  0  0  0
    1.0400   10.2180   18.9460 C   0  0  0  0  0  0  0  0  0  0  0  0
    1.7460    8.8560   18.9620 C   0  0  0  0  0  0  0  0  0  0  0  0
    1.0180    8.0060   20.0200 C   0  0  1  0  0  0  0  0  0  0  0  0
   -0.7580   12.1290   22.9150 H   0  0  0  0  0  0  0  0  0  0  0  0
   -0.7530    9.9120   23.9730 H   0  0  0  0  0  0  0  0  0  0  0  0
    0.0550    7.9110   22.7320 H   0  0  0  0  0  0  0  0  0  0  0  0
    1.7370   11.0180   18.6650 H   0  0  0  0  0  0  0  0  0  0  0  0
    0.1830   10.2080   18.2630 H   0  0  0  0  0  0  0  0  0  0  0  0
    2.7990    9.0000   19.2450 H   0  0  0  0  0  0  0  0  0  0  0  0
    1.7430    8.3830   17.9750 H   0  0  0  0  0  0  0  0  0  0  0  0
    0.1460    7.5090   19.5750 H   0  0  0  0  0  0  0  0  0  0  0  0
   -1.1160   13.4890   20.1010 C   0  0  0  0  0  0  0  0  0  0  0  0
   -1.0920   14.6970   19.4700 N   0  0  0  0  0  0  0  0  0  0  0  0
    0.1400   15.1790   19.1630 C   0  0  0  0  0  0  0  0  0  0  0  0
    1.3090   14.5010   19.4750 C   0  0  0  0  0  0  0  0  0  0  0  0
    2.9850   15.2670   19.0350 Br  0  0  0  0  0  0  0  0  0  0  0  0
    1.2930   13.3000   20.0930 N   0  0  0  0  0  0  0  0  0  0  0  0
    0.0690   12.7860   20.3930 C   0  0  0  0  0  0  0  0  0  0  0  0
    0.1530   16.1400   18.6600 H   0  0  0  0  0  0  0  0  0  0  0  0
   -2.4750   12.9700   20.4760 C   0  0  0  0  0  0  0  0  0  0  0  0
   -2.4130   11.9270   20.7960 H   0  0  0  0  0  0  0  0  0  0  0  0
   -2.9080   13.5780   21.2760 H   0  0  0  0  0  0  0  0  0  0  0  0
   -3.1600   13.0150   19.6200 H   0  0  0  0  0  0  0  0  0  0  0  0
    1.8830    7.0280   20.6380 N   0  0  0  0  0  0  0  0  0  0  0  0
    2.3130    5.9460   19.9190 C   0  0  0  0  0  0  0  0  0  0  0  0
    1.9770    5.7170   18.7680 O   0  0  0  0  0  0  0  0  0  0  0  0
    3.1170    5.1320   20.6660 N   0  0  0  0  0  0  0  0  0  0  0  0
    2.5260    7.3720   21.3320 H   0  0  0  0  0  0  0  0  0  0  0  0
    3.0570    5.2520   21.6620 H   0  0  0  0  0  0  0  0  0  0  0  0
    3.5790    3.8460   20.1790 C   0  0  0  0  0  0  0  0  0  0  0  0
    4.0910    3.2930   20.9790 H   0  0  0  0  0  0  0  0  0  0  0  0
    2.6730    3.2850   19.9290 H   0  0  0  0  0  0  0  0  0  0  0  0
    4.5110    4.0150   19.0010 C   0  0  0  0  0  0  0  0  0  0  0  0
    5.6900    4.7730   19.1790 C   0  0  0  0  0  0  0  0  0  0  0  0
    6.5640    5.0040   18.1190 C   0  0  0  0  0  0  0  0  0  0  0  0
    6.2850    4.4610   16.8770 C   0  0  0  0  0  0  0  0  0  0  0  0
    7.1370    4.6640   15.8700 F   0  0  0  0  0  0  0  0  0  0  0  0
    5.1410    3.7000   16.6680 C   0  0  0  0  0  0  0  0  0  0  0  0
    4.2460    3.4870   17.7210 C   0  0  0  0  0  0  0  0  0  0  0  0
    5.9380    5.1850   20.1630 H   0  0  0  0  0  0  0  0  0  0  0  0
    7.4610    5.6020   18.2610 H   0  0  0  0  0  0  0  0  0  0  0  0
    4.9700    3.2560   15.6860 H   0  0  0  0  0  0  0  0  0  0  0  0
    3.0420    2.6650   17.4350 C   0  0  0  0  0  0  0  0  0  0  0  0
    1.9700    3.3410   16.9260 N   0  0  0  0  0  0  0  0  0  0  0  0
    3.0160    1.4580   17.6390 O   0  0  0  0  0  0  0  0  0  0  0  0
    1.9580    4.3410   16.8060 H   0  0  0  0  0  0  0  0  0  0  0  0
    1.1320    2.8130   16.7250 H   0  0  0  0  0  0  0  0  0  0  0  0
  1  2  1  0  0  0  0
  2 10  1  0  0  0  0
  2  3  2  0  0  0  0
  3 11  1  0  0  0  0
  4 12  1  0  0  0  0
  4  3  1  0  0  0  0
  5  4  2  0  0  0  0
  6  5  1  0  0  0  0
  6  1  2  0  0  0  0
  7  8  1  0  0  0  0
  7  6  1  0  0  0  0
  8 15  1  0  0  0  0
  8  9  1  0  0  0  0
  9 17  1  6  0  0  0
  9 30  1  0  0  0  0
  9  5  1  0  0  0  0
 13  7  1  0  0  0  0
 14  7  1  0  0  0  0
 16  8  1  0  0  0  0
 18 24  1  0  0  0  0
 18 26  1  0  0  0  0
 19 18  2  0  0  0  0
 20 19  1  0  0  0  0
 20 21  2  0  0  0  0
 21 23  1  0  0  0  0
 22 21  1  0  0  0  0
 23 24  2  0  0  0  0
 24  1  1  0  0  0  0
 25 20  1  0  0  0  0
 26 27  1  0  0  0  0
 26 28  1  0  0  0  0
 29 26  1  0  0  0  0
 30 34  1  0  0  0  0
 31 30  1  0  0  0  0
 31 33  1  0  0  0  0
 32 31  2  0  0  0  0
 33 35  1  0  0  0  0
 36 33  1  0  0  0  0
 36 37  1  0  0  0  0
 38 36  1  0  0  0  0
 39 40  1  0  0  0  0
 39 36  1  0  0  0  0
 40 46  1  0  0  0  0
 41 47  1  0  0  0  0
 41 40  2  0  0  0  0
 42 41  1  0  0  0  0
 43 42  1  0  0  0  0
 44 42  2  0  0  0  0
 44 45  1  0  0  0  0
 45 39  2  0  0  0  0
 48 44  1  0  0  0  0
 49 51  2  0  0  0  0
 49 45  1  0  0  0  0
 50 49  1  0  0  0  0
 52 50  1  0  0  0  0
 53 50  1  0  0  0  0
M  END
>  <MODEL>
9

>  <REMARK>
 VINA RESULT:    -8.519      1.871      2.218
 INTER + INTRA:         -11.097
 INTER:                 -10.490
 INTRA:                  -0.607
 UNBOUND:                 0.161
  Name = 
  6 active torsions:
  status: ('A' for Active; 'I' for Inactive)
    1  A    between atoms: C_1  and  C_2
    2  A    between atoms: C_8  and  C_9
    3  A    between atoms: C_17  and  N_18
    4  A    between atoms: N_21  and  C_22
    5  A    between atoms: C_22  and  C_23
    6  A    between atoms: C_29  and  C_30
                            x       y       z     vdW  Elec       q    Type
                         _______ _______ _______ _____ _____    ______ ____

>  <TORSDO>
F 6

$$$$
=
 OpenBabel07192307433D

 53 56  0  0  1  0  0  0  0  0999 V2000
   -0.7790   11.5230   22.1160 C   0  0  0  0  0  0  0  0  0  0  0  0
   -0.7650   10.5720   23.1560 C   0  0  0  0  0  0  0  0  0  0  0  0
   -0.2330    9.2840   22.9690 C   0  0  0  0  0  0  0  0  0  0  0  0
    0.2970    8.9080   21.7390 C   0  0  0  0  0  0  0  0  0  0  0  0
    0.3010    9.8370   20.7100 C   0  0  0  0  0  0  0  0  0  0  0  0
   -0.2320   11.1240   20.8950 C   0  0  0  0  0  0  0  0  0  0  0  0
   -0.1840   11.8970   19.6040 C   0  0  0  0  0  0  0  0  0  0  0  0
    0.8500   11.0960   18.8030 C   0  0  0  0  0  0  0  0  0  0  0  0
    0.7370    9.6390   19.2870 C   0  0  1  0  0  0  0  0  0  0  0  0
   -1.1990   10.8160   24.1250 H   0  0  0  0  0  0  0  0  0  0  0  0
   -0.2580    8.5720   23.7890 H   0  0  0  0  0  0  0  0  0  0  0  0
    0.6800    7.9020   21.5830 H   0  0  0  0  0  0  0  0  0  0  0  0
    0.1440   12.9360   19.7400 H   0  0  0  0  0  0  0  0  0  0  0  0
   -1.1640   11.8720   19.1150 H   0  0  0  0  0  0  0  0  0  0  0  0
    1.8540   11.4920   19.0130 H   0  0  0  0  0  0  0  0  0  0  0  0
    0.6900   11.1890   17.7240 H   0  0  0  0  0  0  0  0  0  0  0  0
   -0.0500    9.1120   18.7310 H   0  0  0  0  0  0  0  0  0  0  0  0
   -0.6420   14.0550   22.2360 C   0  0  0  0  0  0  0  0  0  0  0  0
   -1.2330   15.2620   22.4580 N   0  0  0  0  0  0  0  0  0  0  0  0
   -2.5620   15.2280   22.7320 C   0  0  0  0  0  0  0  0  0  0  0  0
   -3.2870   14.0460   22.7760 C   0  0  0  0  0  0  0  0  0  0  0  0
   -5.1470   14.0980   23.1360 Br  0  0  0  0  0  0  0  0  0  0  0  0
   -2.7070   12.8450   22.5650 N   0  0  0  0  0  0  0  0  0  0  0  0
   -1.3700   12.8520   22.3080 C   0  0  0  0  0  0  0  0  0  0  0  0
   -3.0280   16.1910   22.9090 H   0  0  0  0  0  0  0  0  0  0  0  0
    0.8210   14.0930   21.8940 C   0  0  0  0  0  0  0  0  0  0  0  0
    0.9730   14.5210   20.9000 H   0  0  0  0  0  0  0  0  0  0  0  0
    1.3720   14.6770   22.6370 H   0  0  0  0  0  0  0  0  0  0  0  0
    1.2470   13.0810   21.8890 H   0  0  0  0  0  0  0  0  0  0  0  0
    1.9840    8.9180   19.1810 N   0  0  0  0  0  0  0  0  0  0  0  0
    2.1890    8.0610   18.1340 C   0  0  0  0  0  0  0  0  0  0  0  0
    1.3540    7.8210   17.2760 O   0  0  0  0  0  0  0  0  0  0  0  0
    3.4200    7.4710   18.2010 N   0  0  0  0  0  0  0  0  0  0  0  0
    2.8050    9.3890   19.5260 H   0  0  0  0  0  0  0  0  0  0  0  0
    3.8720    7.5000   19.0980 H   0  0  0  0  0  0  0  0  0  0  0  0
    3.8180    6.4130   17.2920 C   0  0  0  0  0  0  0  0  0  0  0  0
    3.3350    6.5430   16.3140 H   0  0  0  0  0  0  0  0  0  0  0  0
    4.8940    6.5460   17.1400 H   0  0  0  0  0  0  0  0  0  0  0  0
    3.4670    5.0540   17.8560 C   0  0  0  0  0  0  0  0  0  0  0  0
    2.1440    4.5840   17.7040 C   0  0  0  0  0  0  0  0  0  0  0  0
    1.7480    3.3620   18.2430 C   0  0  0  0  0  0  0  0  0  0  0  0
    2.6740    2.5840   18.9170 C   0  0  0  0  0  0  0  0  0  0  0  0
    2.2970    1.4030   19.4100 F   0  0  0  0  0  0  0  0  0  0  0  0
    3.9870    3.0090   19.0740 C   0  0  0  0  0  0  0  0  0  0  0  0
    4.3840    4.2460   18.5600 C   0  0  0  0  0  0  0  0  0  0  0  0
    1.4080    5.1760   17.1490 H   0  0  0  0  0  0  0  0  0  0  0  0
    0.7230    3.0150   18.1360 H   0  0  0  0  0  0  0  0  0  0  0  0
    4.7010    2.3540   19.5790 H   0  0  0  0  0  0  0  0  0  0  0  0
    5.8020    4.6450   18.7600 C   0  0  0  0  0  0  0  0  0  0  0  0
    6.7090    4.0370   17.9390 N   0  0  0  0  0  0  0  0  0  0  0  0
    6.1330    5.4690   19.6020 O   0  0  0  0  0  0  0  0  0  0  0  0
    6.4570    3.3180   17.2800 H   0  0  0  0  0  0  0  0  0  0  0  0
    7.6830    4.2810   18.0500 H   0  0  0  0  0  0  0  0  0  0  0  0
  1 24  1  0  0  0  0
  1  2  1  0  0  0  0
  2 10  1  0  0  0  0
  3  2  2  0  0  0  0
  3 11  1  0  0  0  0
  4  3  1  0  0  0  0
  5  6  1  0  0  0  0
  5  4  2  0  0  0  0
  6  1  2  0  0  0  0
  7 13  1  0  0  0  0
  7  6  1  0  0  0  0
  8 15  1  0  0  0  0
  8  9  1  0  0  0  0
  8  7  1  0  0  0  0
  9 17  1  6  0  0  0
  9  5  1  0  0  0  0
 12  4  1  0  0  0  0
 14  7  1  0  0  0  0
 16  8  1  0  0  0  0
 18 24  2  0  0  0  0
 18 19  1  0  0  0  0
 19 20  2  0  0  0  0
 20 21  1  0  0  0  0
 20 25  1  0  0  0  0
 21 22  1  0  0  0  0
 23 21  2  0  0  0  0
 24 23  1  0  0  0  0
 26 18  1  0  0  0  0
 26 28  1  0  0  0  0
 27 26  1  0  0  0  0
 29 26  1  0  0  0  0
 30  9  1  0  0  0  0
 30 34  1  0  0  0  0
 31 33  1  0  0  0  0
 31 30  1  0  0  0  0
 32 31  2  0  0  0  0
 33 35  1  0  0  0  0
 36 39  1  0  0  0  0
 36 33  1  0  0  0  0
 37 36  1  0  0  0  0
 38 36  1  0  0  0  0
 39 45  1  0  0  0  0
 40 39  2  0  0  0  0
 40 41  1  0  0  0  0
 41 42  2  0  0  0  0
 42 44  1  0  0  0  0
 42 43  1  0  0  0  0
 44 48  1  0  0  0  0
 45 49  1  0  0  0  0
 45 44  2  0  0  0  0
 46 40  1  0  0  0  0
 47 41  1  0  0  0  0
 49 51  2  0  0  0  0
 50 53  1  0  0  0  0
 50 49  1  0  0  0  0
 52 50  1  0  0  0  0
M  END
>  <MODEL>
10

>  <REMARK>
 VINA RESULT:    -8.498      2.330      2.866
 INTER + INTRA:         -11.070
 INTER:                 -10.486
 INTRA:                  -0.584
 UNBOUND:                 0.161
  Name = 
  6 active torsions:
  status: ('A' for Active; 'I' for Inactive)
    1  A    between atoms: C_1  and  C_2
    2  A    between atoms: C_8  and  C_9
    3  A    between atoms: C_17  and  N_18
    4  A    between atoms: N_21  and  C_22
    5  A    between atoms: C_22  and  C_23
    6  A    between atoms: C_29  and  C_30
                            x       y       z     vdW  Elec       q    Type
                         _______ _______ _______ _____ _____    ______ ____

>  <TORSDO>
F 6

$$$$
=
 OpenBabel07192307433D

 53 56  0  0  1  0  0  0  0  0999 V2000
   -1.7850   11.9180   20.1360 C   0  0  0  0  0  0  0  0  0  0  0  0
   -2.3130   11.6530   18.8560 C   0  0  0  0  0  0  0  0  0  0  0  0
   -1.7190   10.7170   17.9930 C   0  0  0  0  0  0  0  0  0  0  0  0
   -0.5780   10.0210   18.3800 C   0  0  0  0  0  0  0  0  0  0  0  0
   -0.0540   10.2610   19.6410 C   0  0  0  0  0  0  0  0  0  0  0  0
   -0.6470   11.1980   20.5050 C   0  0  0  0  0  0  0  0  0  0  0  0
    0.1660   11.3300   21.7650 C   0  0  0  0  0  0  0  0  0  0  0  0
    1.0020   10.0450   21.7310 C   0  0  0  0  0  0  0  0  0  0  0  0
    1.2020    9.7010   20.2430 C   0  0  1  0  0  0  0  0  0  0  0  0
   -3.1860   12.2010   18.5020 H   0  0  0  0  0  0  0  0  0  0  0  0
   -2.1440   10.5550   17.0070 H   0  0  0  0  0  0  0  0  0  0  0  0
   -0.0980    9.3190   17.7020 H   0  0  0  0  0  0  0  0  0  0  0  0
   -0.4530   11.3710   22.6700 H   0  0  0  0  0  0  0  0  0  0  0  0
    0.8070   12.2170   21.7070 H   0  0  0  0  0  0  0  0  0  0  0  0
    0.4480    9.2410   22.2380 H   0  0  0  0  0  0  0  0  0  0  0  0
    1.9520   10.1610   22.2610 H   0  0  0  0  0  0  0  0  0  0  0  0
    2.0730   10.2360   19.8420 H   0  0  0  0  0  0  0  0  0  0  0  0
   -2.0730   14.2960   20.9770 C   0  0  0  0  0  0  0  0  0  0  0  0
   -2.6380   15.1840   21.8420 N   0  0  0  0  0  0  0  0  0  0  0  0
   -3.5310   14.6650   22.7230 C   0  0  0  0  0  0  0  0  0  0  0  0
   -3.8650   13.3190   22.7440 C   0  0  0  0  0  0  0  0  0  0  0  0
   -5.1470   12.6890   23.9900 Br  0  0  0  0  0  0  0  0  0  0  0  0
   -3.3030   12.4300   21.8960 N   0  0  0  0  0  0  0  0  0  0  0  0
   -2.3900   12.9240   21.0160 C   0  0  0  0  0  0  0  0  0  0  0  0
   -3.9770   15.3750   23.4100 H   0  0  0  0  0  0  0  0  0  0  0  0
   -1.1130   14.8740   19.9760 C   0  0  0  0  0  0  0  0  0  0  0  0
   -1.6340   15.1400   19.0530 H   0  0  0  0  0  0  0  0  0  0  0  0
   -0.6160   15.7560   20.3890 H   0  0  0  0  0  0  0  0  0  0  0  0
   -0.3320   14.1470   19.7190 H   0  0  0  0  0  0  0  0  0  0  0  0
    1.3450    8.2810   20.0140 N   0  0  0  0  0  0  0  0  0  0  0  0
    2.1140    7.8330   18.9750 C   0  0  0  0  0  0  0  0  0  0  0  0
    2.6760    8.5660   18.1770 O   0  0  0  0  0  0  0  0  0  0  0  0
    2.1300    6.4670   18.9140 N   0  0  0  0  0  0  0  0  0  0  0  0
    1.3270    7.6910   20.8290 H   0  0  0  0  0  0  0  0  0  0  0  0
    1.3910    5.9980   19.4090 H   0  0  0  0  0  0  0  0  0  0  0  0
    2.7510    5.7520   17.8160 C   0  0  0  0  0  0  0  0  0  0  0  0
    2.2870    4.7630   17.6890 H   0  0  0  0  0  0  0  0  0  0  0  0
    2.5190    6.3340   16.9180 H   0  0  0  0  0  0  0  0  0  0  0  0
    4.2370    5.5900   18.0450 C   0  0  0  0  0  0  0  0  0  0  0  0
    5.1160    6.5190   17.4470 C   0  0  0  0  0  0  0  0  0  0  0  0
    6.4960    6.3950   17.5820 C   0  0  0  0  0  0  0  0  0  0  0  0
    7.0140    5.3570   18.3380 C   0  0  0  0  0  0  0  0  0  0  0  0
    8.3370    5.2550   18.4860 F   0  0  0  0  0  0  0  0  0  0  0  0
    6.1800    4.4310   18.9510 C   0  0  0  0  0  0  0  0  0  0  0  0
    4.7940    4.5340   18.7960 C   0  0  0  0  0  0  0  0  0  0  0  0
    4.7190    7.3620   16.8700 H   0  0  0  0  0  0  0  0  0  0  0  0
    7.1660    7.1050   17.1050 H   0  0  0  0  0  0  0  0  0  0  0  0
    6.6200    3.6470   19.5700 H   0  0  0  0  0  0  0  0  0  0  0  0
    3.9540    3.5150   19.4780 C   0  0  0  0  0  0  0  0  0  0  0  0
    4.2020    2.2170   19.1320 N   0  0  0  0  0  0  0  0  0  0  0  0
    3.1000    3.8210   20.3000 O   0  0  0  0  0  0  0  0  0  0  0  0
    4.8620    1.9560   18.4180 H   0  0  0  0  0  0  0  0  0  0  0  0
    3.6460    1.4980   19.5720 H   0  0  0  0  0  0  0  0  0  0  0  0
  1  6  1  0  0  0  0
  1 24  1  0  0  0  0
  2  1  2  0  0  0  0
  3  4  2  0  0  0  0
  3  2  1  0  0  0  0
  4  5  1  0  0  0  0
  5  9  1  0  0  0  0
  5  6  2  0  0  0  0
  6  7  1  0  0  0  0
  7 13  1  0  0  0  0
  8  7  1  0  0  0  0
  8 15  1  0  0  0  0
  8 16  1  0  0  0  0
  9 17  1  6  0  0  0
  9  8  1  0  0  0  0
 10  2  1  0  0  0  0
 11  3  1  0  0  0  0
 12  4  1  0  0  0  0
 14  7  1  0  0  0  0
 18 24  2  0  0  0  0
 18 19  1  0  0  0  0
 19 20  2  0  0  0  0
 20 21  1  0  0  0  0
 20 25  1  0  0  0  0
 21 22  1  0  0  0  0
 23 21  2  0  0  0  0
 24 23  1  0  0  0  0
 26 28  1  0  0  0  0
 26 18  1  0  0  0  0
 27 26  1  0  0  0  0
 29 26  1  0  0  0  0
 30  9  1  0  0  0  0
 30 34  1  0  0  0  0
 31 30  1  0  0  0  0
 32 31  2  0  0  0  0
 33 31  1  0  0  0  0
 33 35  1  0  0  0  0
 36 39  1  0  0  0  0
 36 33  1  0  0  0  0
 37 36  1  0  0  0  0
 38 36  1  0  0  0  0
 39 45  1  0  0  0  0
 40 41  1  0  0  0  0
 40 39  2  0  0  0  0
 41 42  2  0  0  0  0
 42 43  1  0  0  0  0
 42 44  1  0  0  0  0
 44 48  1  0  0  0  0
 45 44  2  0  0  0  0
 45 49  1  0  0  0  0
 46 40  1  0  0  0  0
 47 41  1  0  0  0  0
 49 51  2  0  0  0  0
 50 49  1  0  0  0  0
 50 53  1  0  0  0  0
 52 50  1  0  0  0  0
M  END
>  <MODEL>
11

>  <REMARK>
 VINA RESULT:    -8.320      2.011      2.710
 INTER + INTRA:         -10.834
 INTER:                  -9.871
 INTRA:                  -0.963
 UNBOUND:                 0.161
  Name = 
  6 active torsions:
  status: ('A' for Active; 'I' for Inactive)
    1  A    between atoms: C_1  and  C_2
    2  A    between atoms: C_8  and  C_9
    3  A    between atoms: C_17  and  N_18
    4  A    between atoms: N_21  and  C_22
    5  A    between atoms: C_22  and  C_23
    6  A    between atoms: C_29  and  C_30
                            x       y       z     vdW  Elec       q    Type
                         _______ _______ _______ _____ _____    ______ ____

>  <TORSDO>
F 6

$$$$
=
 OpenBabel07192307433D

 53 56  0  0  1  0  0  0  0  0999 V2000
   -1.6000   11.7390   19.4450 C   0  0  0  0  0  0  0  0  0  0  0  0
   -2.2520   11.3500   18.2570 C   0  0  0  0  0  0  0  0  0  0  0  0
   -1.7410   10.3300   17.4360 C   0  0  0  0  0  0  0  0  0  0  0  0
   -0.5610    9.6730   17.7740 C   0  0  0  0  0  0  0  0  0  0  0  0
    0.0840   10.0370   18.9460 C   0  0  0  0  0  0  0  0  0  0  0  0
   -0.4260   11.0570   19.7670 C   0  0  0  0  0  0  0  0  0  0  0  0
    0.5080   11.3110   20.9200 C   0  0  0  0  0  0  0  0  0  0  0  0
    1.3450   10.0260   20.9300 C   0  0  0  0  0  0  0  0  0  0  0  0
    1.3980    9.5350   19.4710 C   0  0  1  0  0  0  0  0  0  0  0  0
   -3.1600   11.8620   17.9400 H   0  0  0  0  0  0  0  0  0  0  0  0
   -2.2610   10.0720   16.5180 H   0  0  0  0  0  0  0  0  0  0  0  0
   -0.1480    8.9060   17.1240 H   0  0  0  0  0  0  0  0  0  0  0  0
   -0.0180   11.4440   21.8740 H   0  0  0  0  0  0  0  0  0  0  0  0
    1.1340   12.1860   20.7100 H   0  0  0  0  0  0  0  0  0  0  0  0
    0.8510    9.2790   21.5670 H   0  0  0  0  0  0  0  0  0  0  0  0
    2.3430   10.1930   21.3480 H   0  0  0  0  0  0  0  0  0  0  0  0
    2.2200   10.0250   18.9330 H   0  0  0  0  0  0  0  0  0  0  0  0
   -1.6330   14.1510   20.2380 C   0  0  0  0  0  0  0  0  0  0  0  0
   -2.1280   15.1190   21.0590 N   0  0  0  0  0  0  0  0  0  0  0  0
   -3.1260   14.7330   21.8940 C   0  0  0  0  0  0  0  0  0  0  0  0
   -3.6280   13.4390   21.9130 C   0  0  0  0  0  0  0  0  0  0  0  0
   -5.0440   12.9990   23.0920 Br  0  0  0  0  0  0  0  0  0  0  0  0
   -3.1360   12.4710   21.1090 N   0  0  0  0  0  0  0  0  0  0  0  0
   -2.1210   12.8300   20.2770 C   0  0  0  0  0  0  0  0  0  0  0  0
   -3.5160   15.5070   22.5460 H   0  0  0  0  0  0  0  0  0  0  0  0
   -0.5540   14.5840   19.2860 C   0  0  0  0  0  0  0  0  0  0  0  0
    0.4280   14.5140   19.7600 H   0  0  0  0  0  0  0  0  0  0  0  0
   -0.5740   13.9690   18.3810 H   0  0  0  0  0  0  0  0  0  0  0  0
   -0.7000   15.6270   18.9780 H   0  0  0  0  0  0  0  0  0  0  0  0
    1.5270    8.1000   19.3720 N   0  0  0  0  0  0  0  0  0  0  0  0
    2.4210    7.5550   18.4900 C   0  0  0  0  0  0  0  0  0  0  0  0
    3.1130    8.2130   17.7280 O   0  0  0  0  0  0  0  0  0  0  0  0
    2.4030    6.1900   18.5340 N   0  0  0  0  0  0  0  0  0  0  0  0
    1.3760    7.5760   20.2180 H   0  0  0  0  0  0  0  0  0  0  0  0
    1.5880    5.7750   18.9520 H   0  0  0  0  0  0  0  0  0  0  0  0
    3.1500    5.3780   17.5930 C   0  0  0  0  0  0  0  0  0  0  0  0
    2.7710    4.3460   17.5880 H   0  0  0  0  0  0  0  0  0  0  0  0
    2.9380    5.8030   16.6060 H   0  0  0  0  0  0  0  0  0  0  0  0
    4.6250    5.3760   17.9290 C   0  0  0  0  0  0  0  0  0  0  0  0
    5.0080    5.1660   19.2730 C   0  0  0  0  0  0  0  0  0  0  0  0
    6.3470    5.2000   19.6520 C   0  0  0  0  0  0  0  0  0  0  0  0
    7.3210    5.4200   18.6930 C   0  0  0  0  0  0  0  0  0  0  0  0
    8.6050    5.4280   19.0570 F   0  0  0  0  0  0  0  0  0  0  0  0
    6.9820    5.6180   17.3600 C   0  0  0  0  0  0  0  0  0  0  0  0
    5.6370    5.6120   16.9770 C   0  0  0  0  0  0  0  0  0  0  0  0
    4.2500    4.9630   20.0370 H   0  0  0  0  0  0  0  0  0  0  0  0
    6.6330    5.0540   20.6910 H   0  0  0  0  0  0  0  0  0  0  0  0
    7.7760    5.7520   16.6240 H   0  0  0  0  0  0  0  0  0  0  0  0
    5.3380    5.8290   15.5370 C   0  0  0  0  0  0  0  0  0  0  0  0
    4.9990    7.1050   15.1890 N   0  0  0  0  0  0  0  0  0  0  0  0
    5.3980    4.9210   14.7180 O   0  0  0  0  0  0  0  0  0  0  0  0
    4.8920    7.8470   15.8610 H   0  0  0  0  0  0  0  0  0  0  0  0
    4.7840    7.2880   14.2190 H   0  0  0  0  0  0  0  0  0  0  0  0
  1  6  1  0  0  0  0
  1 24  1  0  0  0  0
  2  1  2  0  0  0  0
  3  4  2  0  0  0  0
  3  2  1  0  0  0  0
  4  5  1  0  0  0  0
  5  9  1  0  0  0  0
  5  6  2  0  0  0  0
  6  7  1  0  0  0  0
  7  8  1  0  0  0  0
  7 13  1  0  0  0  0
  8 16  1  0  0  0  0
  8 15  1  0  0  0  0
  9 17  1  6  0  0  0
  9  8  1  0  0  0  0
 10  2  1  0  0  0  0
 11  3  1  0  0  0  0
 12  4  1  0  0  0  0
 14  7  1  0  0  0  0
 18 24  2  0  0  0  0
 18 19  1  0  0  0  0
 19 20  2  0  0  0  0
 20 21  1  0  0  0  0
 20 25  1  0  0  0  0
 21 22  1  0  0  0  0
 23 21  2  0  0  0  0
 24 23  1  0  0  0  0
 26 27  1  0  0  0  0
 26 18  1  0  0  0  0
 28 26  1  0  0  0  0
 29 26  1  0  0  0  0
 30  9  1  0  0  0  0
 30 34  1  0  0  0  0
 31 33  1  0  0  0  0
 31 30  1  0  0  0  0
 32 31  2  0  0  0  0
 33 35  1  0  0  0  0
 36 39  1  0  0  0  0
 36 33  1  0  0  0  0
 37 36  1  0  0  0  0
 38 36  1  0  0  0  0
 39 40  1  0  0  0  0
 40 41  2  0  0  0  0
 40 46  1  0  0  0  0
 41 47  1  0  0  0  0
 42 43  1  0  0  0  0
 42 41  1  0  0  0  0
 44 42  2  0  0  0  0
 45 44  1  0  0  0  0
 45 39  2  0  0  0  0
 48 44  1  0  0  0  0
 49 45  1  0  0  0  0
 50 49  1  0  0  0  0
 50 52  1  0  0  0  0
 51 49  2  0  0  0  0
 53 50  1  0  0  0  0
M  END
>  <MODEL>
12

>  <REMARK>
 VINA RESULT:    -8.245      2.178      2.968
 INTER + INTRA:         -10.735
 INTER:                  -9.564
 INTRA:                  -1.171
 UNBOUND:                 0.161
  Name = 
  6 active torsions:
  status: ('A' for Active; 'I' for Inactive)
    1  A    between atoms: C_1  and  C_2
    2  A    between atoms: C_8  and  C_9
    3  A    between atoms: C_17  and  N_18
    4  A    between atoms: N_21  and  C_22
    5  A    between atoms: C_22  and  C_23
    6  A    between atoms: C_29  and  C_30
                            x       y       z     vdW  Elec       q    Type
                         _______ _______ _______ _____ _____    ______ ____

>  <TORSDO>
F 6

$$$$
=
 OpenBabel07192307433D

 53 56  0  0  1  0  0  0  0  0999 V2000
   -0.2400   11.0940   21.0110 C   0  0  0  0  0  0  0  0  0  0  0  0
   -0.3910   10.2730   22.1460 C   0  0  0  0  0  0  0  0  0  0  0  0
    0.0900    8.9530   22.1690 C   0  0  0  0  0  0  0  0  0  0  0  0
    0.7320    8.4120   21.0590 C   0  0  0  0  0  0  0  0  0  0  0  0
    0.8980    9.2130   19.9400 C   0  0  0  0  0  0  0  0  0  0  0  0
    0.4170   10.5320   19.9140 C   0  0  0  0  0  0  0  0  0  0  0  0
    0.6470   11.1440   18.5590 C   0  0  0  0  0  0  0  0  0  0  0  0
    1.7200   10.2150   17.9780 C   0  0  0  0  0  0  0  0  0  0  0  0
    1.4780    8.8300   18.6080 C   0  0  1  0  0  0  0  0  0  0  0  0
   -0.9160   10.6470   23.0250 H   0  0  0  0  0  0  0  0  0  0  0  0
   -0.0620    8.3440   23.0560 H   0  0  0  0  0  0  0  0  0  0  0  0
    1.0770    7.3810   21.0640 H   0  0  0  0  0  0  0  0  0  0  0  0
    1.0120   12.1780   18.6130 H   0  0  0  0  0  0  0  0  0  0  0  0
   -0.2730   11.1010   17.9660 H   0  0  0  0  0  0  0  0  0  0  0  0
    2.7140   10.5930   18.2570 H   0  0  0  0  0  0  0  0  0  0  0  0
    1.6860   10.1850   16.8840 H   0  0  0  0  0  0  0  0  0  0  0  0
    0.7310    8.2730   18.0280 H   0  0  0  0  0  0  0  0  0  0  0  0
    0.0160   13.6200   21.0430 C   0  0  0  0  0  0  0  0  0  0  0  0
   -0.5380   14.8650   21.0490 N   0  0  0  0  0  0  0  0  0  0  0  0
   -1.8920   14.9090   20.9720 C   0  0  0  0  0  0  0  0  0  0  0  0
   -2.6750   13.7680   20.8830 C   0  0  0  0  0  0  0  0  0  0  0  0
   -4.5590   13.9290   20.7490 Br  0  0  0  0  0  0  0  0  0  0  0  0
   -2.1350   12.5300   20.8850 N   0  0  0  0  0  0  0  0  0  0  0  0
   -0.7790   12.4590   20.9810 C   0  0  0  0  0  0  0  0  0  0  0  0
   -2.3280   15.9020   20.9780 H   0  0  0  0  0  0  0  0  0  0  0  0
    1.5170   13.5680   21.0890 C   0  0  0  0  0  0  0  0  0  0  0  0
    1.8580   13.1290   22.0310 H   0  0  0  0  0  0  0  0  0  0  0  0
    1.9050   12.9850   20.2480 H   0  0  0  0  0  0  0  0  0  0  0  0
    1.9460   14.5750   21.0170 H   0  0  0  0  0  0  0  0  0  0  0  0
    2.6900    8.0540   18.7290 N   0  0  0  0  0  0  0  0  0  0  0  0
    2.6730    6.7160   18.4450 C   0  0  0  0  0  0  0  0  0  0  0  0
    1.6690    6.1000   18.1240 O   0  0  0  0  0  0  0  0  0  0  0  0
    3.9050    6.1490   18.6170 N   0  0  0  0  0  0  0  0  0  0  0  0
    3.5520    8.5320   18.5230 H   0  0  0  0  0  0  0  0  0  0  0  0
    4.5540    6.6730   19.1790 H   0  0  0  0  0  0  0  0  0  0  0  0
    4.1160    4.7170   18.5240 C   0  0  0  0  0  0  0  0  0  0  0  0
    3.8920    4.3610   17.5090 H   0  0  0  0  0  0  0  0  0  0  0  0
    5.1870    4.5680   18.6890 H   0  0  0  0  0  0  0  0  0  0  0  0
    3.2560    3.9770   19.5240 C   0  0  0  0  0  0  0  0  0  0  0  0
    2.9340    4.6190   20.7400 C   0  0  0  0  0  0  0  0  0  0  0  0
    2.1870    3.9710   21.7200 C   0  0  0  0  0  0  0  0  0  0  0  0
    1.7310    2.6850   21.4880 C   0  0  0  0  0  0  0  0  0  0  0  0
    0.9940    2.0760   22.4190 F   0  0  0  0  0  0  0  0  0  0  0  0
    2.0180    2.0270   20.2990 C   0  0  0  0  0  0  0  0  0  0  0  0
    2.7910    2.6610   19.3220 C   0  0  0  0  0  0  0  0  0  0  0  0
    3.2640    5.6470   20.9250 H   0  0  0  0  0  0  0  0  0  0  0  0
    1.9570    4.4670   22.6600 H   0  0  0  0  0  0  0  0  0  0  0  0
    1.6120    1.0270   20.1330 H   0  0  0  0  0  0  0  0  0  0  0  0
    3.0640    1.9060   18.0710 C   0  0  0  0  0  0  0  0  0  0  0  0
    3.9960    0.9130   18.1700 N   0  0  0  0  0  0  0  0  0  0  0  0
    2.4840    2.1570   17.0220 O   0  0  0  0  0  0  0  0  0  0  0  0
    4.5190    0.7340   19.0120 H   0  0  0  0  0  0  0  0  0  0  0  0
    4.2100    0.3820   17.3380 H   0  0  0  0  0  0  0  0  0  0  0  0
  1  2  1  0  0  0  0
  2  3  2  0  0  0  0
  2 10  1  0  0  0  0
  3 11  1  0  0  0  0
  4 12  1  0  0  0  0
  4  3  1  0  0  0  0
  5  4  2  0  0  0  0
  6  5  1  0  0  0  0
  6  1  2  0  0  0  0
  7 13  1  0  0  0  0
  7  6  1  0  0  0  0
  8 15  1  0  0  0  0
  8  7  1  0  0  0  0
  8  9  1  0  0  0  0
  9 17  1  6  0  0  0
  9 30  1  0  0  0  0
  9  5  1  0  0  0  0
 14  7  1  0  0  0  0
 16  8  1  0  0  0  0
 18 19  1  0  0  0  0
 18 26  1  0  0  0  0
 20 25  1  0  0  0  0
 20 19  2  0  0  0  0
 21 23  2  0  0  0  0
 21 20  1  0  0  0  0
 22 21  1  0  0  0  0
 23 24  1  0  0  0  0
 24  1  1  0  0  0  0
 24 18  2  0  0  0  0
 26 27  1  0  0  0  0
 28 26  1  0  0  0  0
 29 26  1  0  0  0  0
 31 33  1  0  0  0  0
 31 30  1  0  0  0  0
 32 31  2  0  0  0  0
 33 35  1  0  0  0  0
 34 30  1  0  0  0  0
 36 33  1  0  0  0  0
 36 38  1  0  0  0  0
 36 39  1  0  0  0  0
 37 36  1  0  0  0  0
 39 40  1  0  0  0  0
 40 46  1  0  0  0  0
 40 41  2  0  0  0  0
 41 47  1  0  0  0  0
 42 41  1  0  0  0  0
 42 43  1  0  0  0  0
 44 42  2  0  0  0  0
 45 39  2  0  0  0  0
 45 44  1  0  0  0  0
 48 44  1  0  0  0  0
 49 50  1  0  0  0  0
 49 45  1  0  0  0  0
 50 52  1  0  0  0  0
 51 49  2  0  0  0  0
 53 50  1  0  0  0  0
M  END
>  <MODEL>
13

>  <REMARK>
 VINA RESULT:    -8.083      2.306      3.024
 INTER + INTRA:         -10.521
 INTER:                 -10.145
 INTRA:                  -0.376
 UNBOUND:                 0.161
  Name = 
  6 active torsions:
  status: ('A' for Active; 'I' for Inactive)
    1  A    between atoms: C_1  and  C_2
    2  A    between atoms: C_8  and  C_9
    3  A    between atoms: C_17  and  N_18
    4  A    between atoms: N_21  and  C_22
    5  A    between atoms: C_22  and  C_23
    6  A    between atoms: C_29  and  C_30
                            x       y       z     vdW  Elec       q    Type
                         _______ _______ _______ _____ _____    ______ ____

>  <TORSDO>
F 6

$$$$
=
 OpenBabel07192307433D

 53 56  0  0  1  0  0  0  0  0999 V2000
    0.4890   10.5100   19.2070 C   0  0  0  0  0  0  0  0  0  0  0  0
    1.2460   10.9620   18.1080 C   0  0  0  0  0  0  0  0  0  0  0  0
    2.2860   10.1900   17.5620 C   0  0  0  0  0  0  0  0  0  0  0  0
    2.6020    8.9450   18.1000 C   0  0  0  0  0  0  0  0  0  0  0  0
    1.8570    8.4820   19.1730 C   0  0  0  0  0  0  0  0  0  0  0  0
    0.8190    9.2540   19.7210 C   0  0  0  0  0  0  0  0  0  0  0  0
    0.2360    8.5630   20.9240 C   0  0  0  0  0  0  0  0  0  0  0  0
    0.7230    7.1220   20.7190 C   0  0  0  0  0  0  0  0  0  0  0  0
    2.0620    7.2230   19.9660 C   0  0  1  0  0  0  0  0  0  0  0  0
    1.0530   11.9450   17.6790 H   0  0  0  0  0  0  0  0  0  0  0  0
    2.8600   10.5810   16.7270 H   0  0  0  0  0  0  0  0  0  0  0  0
    3.4260    8.3600   17.6980 H   0  0  0  0  0  0  0  0  0  0  0  0
   -0.8610    8.6050   20.9520 H   0  0  0  0  0  0  0  0  0  0  0  0
    0.6530    8.9910   21.8420 H   0  0  0  0  0  0  0  0  0  0  0  0
   -0.0160    6.5750   20.1160 H   0  0  0  0  0  0  0  0  0  0  0  0
    0.8200    6.5860   21.6690 H   0  0  0  0  0  0  0  0  0  0  0  0
    2.8880    7.3650   20.6740 H   0  0  0  0  0  0  0  0  0  0  0  0
   -1.8980   11.3670   19.3280 C   0  0  0  0  0  0  0  0  0  0  0  0
   -2.8340   12.1830   19.8880 N   0  0  0  0  0  0  0  0  0  0  0  0
   -2.4090   12.9450   20.9280 C   0  0  0  0  0  0  0  0  0  0  0  0
   -1.1080   12.8980   21.4080 C   0  0  0  0  0  0  0  0  0  0  0  0
   -0.6130   13.9750   22.8850 Br  0  0  0  0  0  0  0  0  0  0  0  0
   -0.1720   12.0980   20.8530 N   0  0  0  0  0  0  0  0  0  0  0  0
   -0.5690   11.3390   19.7950 C   0  0  0  0  0  0  0  0  0  0  0  0
   -3.1580   13.5930   21.3690 H   0  0  0  0  0  0  0  0  0  0  0  0
   -2.3750   10.4950   18.2010 C   0  0  0  0  0  0  0  0  0  0  0  0
   -3.1540   11.0010   17.6260 H   0  0  0  0  0  0  0  0  0  0  0  0
   -1.5410   10.2310   17.5430 H   0  0  0  0  0  0  0  0  0  0  0  0
   -2.8000    9.5590   18.5850 H   0  0  0  0  0  0  0  0  0  0  0  0
    2.3180    6.0740   19.1300 N   0  0  0  0  0  0  0  0  0  0  0  0
    3.5350    5.4500   19.1830 C   0  0  0  0  0  0  0  0  0  0  0  0
    4.4640    5.8280   19.8780 O   0  0  0  0  0  0  0  0  0  0  0  0
    3.5940    4.3880   18.3250 N   0  0  0  0  0  0  0  0  0  0  0  0
    1.5310    5.4770   18.9340 H   0  0  0  0  0  0  0  0  0  0  0  0
    2.9030    4.3760   17.5940 H   0  0  0  0  0  0  0  0  0  0  0  0
    4.8230    3.6560   18.0860 C   0  0  0  0  0  0  0  0  0  0  0  0
    5.5310    3.8140   18.9120 H   0  0  0  0  0  0  0  0  0  0  0  0
    4.5420    2.5980   18.1010 H   0  0  0  0  0  0  0  0  0  0  0  0
    5.4610    4.0780   16.7810 C   0  0  0  0  0  0  0  0  0  0  0  0
    4.7360    3.8830   15.5840 C   0  0  0  0  0  0  0  0  0  0  0  0
    5.2890    4.2080   14.3480 C   0  0  0  0  0  0  0  0  0  0  0  0
    6.5600    4.7540   14.2940 C   0  0  0  0  0  0  0  0  0  0  0  0
    7.0770    5.0860   13.1090 F   0  0  0  0  0  0  0  0  0  0  0  0
    7.2970    4.9710   15.4510 C   0  0  0  0  0  0  0  0  0  0  0  0
    6.7590    4.6220   16.6940 C   0  0  0  0  0  0  0  0  0  0  0  0
    3.7190    3.4790   15.6150 H   0  0  0  0  0  0  0  0  0  0  0  0
    4.7310    4.0400   13.4300 H   0  0  0  0  0  0  0  0  0  0  0  0
    8.2810    5.4370   15.3760 H   0  0  0  0  0  0  0  0  0  0  0  0
    7.5940    4.8790   17.8950 C   0  0  0  0  0  0  0  0  0  0  0  0
    8.5940    3.9770   18.1250 N   0  0  0  0  0  0  0  0  0  0  0  0
    7.4010    5.8410   18.6270 O   0  0  0  0  0  0  0  0  0  0  0  0
    8.7280    3.1520   17.5640 H   0  0  0  0  0  0  0  0  0  0  0  0
    9.1790    4.1180   18.9370 H   0  0  0  0  0  0  0  0  0  0  0  0
  1  6  1  0  0  0  0
  1 24  1  0  0  0  0
  2  1  2  0  0  0  0
  3  4  2  0  0  0  0
  3  2  1  0  0  0  0
  4  5  1  0  0  0  0
  5  6  2  0  0  0  0
  5  9  1  0  0  0  0
  6  7  1  0  0  0  0
  7 13  1  0  0  0  0
  7 14  1  0  0  0  0
  8  7  1  0  0  0  0
  8 16  1  0  0  0  0
  9 17  1  1  0  0  0
  9  8  1  0  0  0  0
 10  2  1  0  0  0  0
 11  3  1  0  0  0  0
 12  4  1  0  0  0  0
 15  8  1  0  0  0  0
 18 24  2  0  0  0  0
 18 19  1  0  0  0  0
 19 20  2  0  0  0  0
 20 25  1  0  0  0  0
 20 21  1  0  0  0  0
 21 22  1  0  0  0  0
 23 21  2  0  0  0  0
 24 23  1  0  0  0  0
 26 29  1  0  0  0  0
 26 18  1  0  0  0  0
 27 26  1  0  0  0  0
 28 26  1  0  0  0  0
 30 31  1  0  0  0  0
 30  9  1  0  0  0  0
 31 32  2  0  0  0  0
 33 31  1  0  0  0  0
 34 30  1  0  0  0  0
 35 33  1  0  0  0  0
 36 38  1  0  0  0  0
 36 33  1  0  0  0  0
 36 37  1  0  0  0  0
 39 36  1  0  0  0  0
 40 46  1  0  0  0  0
 40 39  2  0  0  0  0
 41 40  1  0  0  0  0
 42 41  2  0  0  0  0
 42 44  1  0  0  0  0
 43 42  1  0  0  0  0
 44 45  2  0  0  0  0
 45 39  1  0  0  0  0
 45 49  1  0  0  0  0
 47 41  1  0  0  0  0
 48 44  1  0  0  0  0
 49 50  1  0  0  0  0
 49 51  2  0  0  0  0
 50 53  1  0  0  0  0
 52 50  1  0  0  0  0
M  END
>  <MODEL>
14

>  <REMARK>
 VINA RESULT:    -8.073      2.230      3.492
 INTER + INTRA:         -10.507
 INTER:                  -9.252
 INTRA:                  -1.256
 UNBOUND:                 0.161
  Name = 
  6 active torsions:
  status: ('A' for Active; 'I' for Inactive)
    1  A    between atoms: C_1  and  C_2
    2  A    between atoms: C_8  and  C_9
    3  A    between atoms: C_17  and  N_18
    4  A    between atoms: N_21  and  C_22
    5  A    between atoms: C_22  and  C_23
    6  A    between atoms: C_29  and  C_30
                            x       y       z     vdW  Elec       q    Type
                         _______ _______ _______ _____ _____    ______ ____

>  <TORSDO>
F 6

$$$$
=
 OpenBabel07192307433D

 53 56  0  0  1  0  0  0  0  0999 V2000
   -1.2760   12.7900   20.3720 C   0  0  0  0  0  0  0  0  0  0  0  0
   -0.7240   13.7110   19.4590 C   0  0  0  0  0  0  0  0  0  0  0  0
    0.3720   13.3750   18.6460 C   0  0  0  0  0  0  0  0  0  0  0  0
    0.9520   12.1120   18.7240 C   0  0  0  0  0  0  0  0  0  0  0  0
    0.4110   11.1920   19.6080 C   0  0  0  0  0  0  0  0  0  0  0  0
   -0.6840   11.5270   20.4230 C   0  0  0  0  0  0  0  0  0  0  0  0
   -1.0120   10.3850   21.3470 C   0  0  0  0  0  0  0  0  0  0  0  0
   -0.3080    9.2120   20.6530 C   0  0  0  0  0  0  0  0  0  0  0  0
    0.9100    9.8110   19.9250 C   0  0  1  0  0  0  0  0  0  0  0  0
   -1.1270   14.7210   19.3910 H   0  0  0  0  0  0  0  0  0  0  0  0
    0.7820   14.1190   17.9680 H   0  0  0  0  0  0  0  0  0  0  0  0
    1.8190   11.8610   18.1180 H   0  0  0  0  0  0  0  0  0  0  0  0
   -2.0910   10.2000   21.4300 H   0  0  0  0  0  0  0  0  0  0  0  0
   -0.5840   10.5690   22.3380 H   0  0  0  0  0  0  0  0  0  0  0  0
   -0.9980    8.7540   19.9310 H   0  0  0  0  0  0  0  0  0  0  0  0
   -0.0230    8.4300   21.3640 H   0  0  0  0  0  0  0  0  0  0  0  0
    1.7670    9.8780   20.6070 H   0  0  0  0  0  0  0  0  0  0  0  0
   -3.7510   12.9740   20.9070 C   0  0  0  0  0  0  0  0  0  0  0  0
   -4.7550   13.3700   21.7390 N   0  0  0  0  0  0  0  0  0  0  0  0
   -4.3640   13.9330   22.9110 C   0  0  0  0  0  0  0  0  0  0  0  0
   -3.0300   14.0920   23.2570 C   0  0  0  0  0  0  0  0  0  0  0  0
   -2.5780   14.8610   24.9300 Br  0  0  0  0  0  0  0  0  0  0  0  0
   -2.0290   13.7100   22.4350 N   0  0  0  0  0  0  0  0  0  0  0  0
   -2.3960   13.1610   21.2450 C   0  0  0  0  0  0  0  0  0  0  0  0
   -5.1660   14.2470   23.5700 H   0  0  0  0  0  0  0  0  0  0  0  0
   -4.1800   12.3160   19.6270 C   0  0  0  0  0  0  0  0  0  0  0  0
   -3.3450   11.7730   19.1750 H   0  0  0  0  0  0  0  0  0  0  0  0
   -5.0120   11.6300   19.8090 H   0  0  0  0  0  0  0  0  0  0  0  0
   -4.5220   13.0630   18.8990 H   0  0  0  0  0  0  0  0  0  0  0  0
    1.2740    9.0650   18.7430 N   0  0  0  0  0  0  0  0  0  0  0  0
    2.2060    8.0660   18.8280 C   0  0  0  0  0  0  0  0  0  0  0  0
    2.8020    7.7760   19.8540 O   0  0  0  0  0  0  0  0  0  0  0  0
    2.4230    7.4760   17.6150 N   0  0  0  0  0  0  0  0  0  0  0  0
    0.5490    8.9270   18.0590 H   0  0  0  0  0  0  0  0  0  0  0  0
    2.1240    8.0010   16.8120 H   0  0  0  0  0  0  0  0  0  0  0  0
    3.4700    6.4930   17.4120 C   0  0  0  0  0  0  0  0  0  0  0  0
    3.7200    6.4120   16.3440 H   0  0  0  0  0  0  0  0  0  0  0  0
    4.3520    6.8950   17.9200 H   0  0  0  0  0  0  0  0  0  0  0  0
    3.0530    5.1390   17.9400 C   0  0  0  0  0  0  0  0  0  0  0  0
    1.6880    4.7810   17.8710 C   0  0  0  0  0  0  0  0  0  0  0  0
    1.2350    3.5680   18.3840 C   0  0  0  0  0  0  0  0  0  0  0  0
    2.1430    2.6870   18.9480 C   0  0  0  0  0  0  0  0  0  0  0  0
    1.7090    1.5150   19.4160 F   0  0  0  0  0  0  0  0  0  0  0  0
    3.4940    3.0000   19.0210 C   0  0  0  0  0  0  0  0  0  0  0  0
    3.9510    4.2280   18.5330 C   0  0  0  0  0  0  0  0  0  0  0  0
    0.9640    5.4560   17.4030 H   0  0  0  0  0  0  0  0  0  0  0  0
    0.1810    3.3070   18.3420 H   0  0  0  0  0  0  0  0  0  0  0  0
    4.1880    2.2670   19.4380 H   0  0  0  0  0  0  0  0  0  0  0  0
    5.4070    4.5040   18.6380 C   0  0  0  0  0  0  0  0  0  0  0  0
    6.1820    3.9880   17.6390 N   0  0  0  0  0  0  0  0  0  0  0  0
    5.8790    5.1580   19.5600 O   0  0  0  0  0  0  0  0  0  0  0  0
    5.8140    3.4020   16.9070 H   0  0  0  0  0  0  0  0  0  0  0  0
    7.1780    4.1520   17.6820 H   0  0  0  0  0  0  0  0  0  0  0  0
  1  6  1  0  0  0  0
  1 24  1  0  0  0  0
  2  1  2  0  0  0  0
  3  4  2  0  0  0  0
  3  2  1  0  0  0  0
  4  5  1  0  0  0  0
  5  9  1  0  0  0  0
  5  6  2  0  0  0  0
  6  7  1  0  0  0  0
  7 13  1  0  0  0  0
  7 14  1  0  0  0  0
  8  7  1  0  0  0  0
  8 16  1  0  0  0  0
  9 17  1  1  0  0  0
  9  8  1  0  0  0  0
 10  2  1  0  0  0  0
 11  3  1  0  0  0  0
 12  4  1  0  0  0  0
 15  8  1  0  0  0  0
 18 24  2  0  0  0  0
 18 19  1  0  0  0  0
 19 20  2  0  0  0  0
 20 21  1  0  0  0  0
 20 25  1  0  0  0  0
 21 22  1  0  0  0  0
 23 21  2  0  0  0  0
 24 23  1  0  0  0  0
 26 28  1  0  0  0  0
 26 18  1  0  0  0  0
 27 26  1  0  0  0  0
 29 26  1  0  0  0  0
 30 31  1  0  0  0  0
 30  9  1  0  0  0  0
 31 32  2  0  0  0  0
 33 31  1  0  0  0  0
 34 30  1  0  0  0  0
 35 33  1  0  0  0  0
 36 33  1  0  0  0  0
 36 38  1  0  0  0  0
 36 39  1  0  0  0  0
 37 36  1  0  0  0  0
 39 45  1  0  0  0  0
 40 39  2  0  0  0  0
 40 41  1  0  0  0  0
 41 42  2  0  0  0  0
 42 44  1  0  0  0  0
 42 43  1  0  0  0  0
 44 48  1  0  0  0  0
 45 49  1  0  0  0  0
 45 44  2  0  0  0  0
 46 40  1  0  0  0  0
 47 41  1  0  0  0  0
 49 51  2  0  0  0  0
 50 53  1  0  0  0  0
 50 49  1  0  0  0  0
 52 50  1  0  0  0  0
M  END
>  <MODEL>
15

>  <REMARK>
 VINA RESULT:    -7.978      2.590      3.786
 INTER + INTRA:         -10.382
 INTER:                  -9.407
 INTRA:                  -0.975
 UNBOUND:                 0.161
  Name = 
  6 active torsions:
  status: ('A' for Active; 'I' for Inactive)
    1  A    between atoms: C_1  and  C_2
    2  A    between atoms: C_8  and  C_9
    3  A    between atoms: C_17  and  N_18
    4  A    between atoms: N_21  and  C_22
    5  A    between atoms: C_22  and  C_23
    6  A    between atoms: C_29  and  C_30
                            x       y       z     vdW  Elec       q    Type
                         _______ _______ _______ _____ _____    ______ ____

>  <TORSDO>
F 6

$$$$
=
 OpenBabel07192307433D

 53 56  0  0  1  0  0  0  0  0999 V2000
    3.8920    5.5280   18.3790 C   0  0  0  0  0  0  0  0  0  0  0  0
    3.3020    4.6470   19.3070 C   0  0  0  0  0  0  0  0  0  0  0  0
    2.2680    5.0630   20.1630 C   0  0  0  0  0  0  0  0  0  0  0  0
    1.7950    6.3710   20.1190 C   0  0  0  0  0  0  0  0  0  0  0  0
    2.3570    7.2450   19.2030 C   0  0  0  0  0  0  0  0  0  0  0  0
    3.3930    6.8310   18.3480 C   0  0  0  0  0  0  0  0  0  0  0  0
    3.8800    7.9910   17.5210 C   0  0  0  0  0  0  0  0  0  0  0  0
    2.7120    8.9760   17.6510 C   0  0  0  0  0  0  0  0  0  0  0  0
    2.0750    8.7100   19.0280 C   0  0  1  0  0  0  0  0  0  0  0  0
    3.6650    3.6230   19.3960 H   0  0  0  0  0  0  0  0  0  0  0  0
    1.8510    4.3600   20.8790 H   0  0  0  0  0  0  0  0  0  0  0  0
    1.0160    6.7030   20.8020 H   0  0  0  0  0  0  0  0  0  0  0  0
    4.0520    7.7240   16.4700 H   0  0  0  0  0  0  0  0  0  0  0  0
    4.7940    8.4060   17.9590 H   0  0  0  0  0  0  0  0  0  0  0  0
    1.9850    8.7820   16.8500 H   0  0  0  0  0  0  0  0  0  0  0  0
    3.0400   10.0150   17.5400 H   0  0  0  0  0  0  0  0  0  0  0  0
    2.5980    9.2810   19.8070 H   0  0  0  0  0  0  0  0  0  0  0  0
    6.3470    5.0660   17.9200 C   0  0  0  0  0  0  0  0  0  0  0  0
    7.3400    4.6900   17.0670 N   0  0  0  0  0  0  0  0  0  0  0  0
    6.9420    4.3320   15.8190 C   0  0  0  0  0  0  0  0  0  0  0  0
    5.6110    4.3340   15.4270 C   0  0  0  0  0  0  0  0  0  0  0  0
    5.1480    3.7880   13.6730 Br  0  0  0  0  0  0  0  0  0  0  0  0
    4.6220    4.7130   16.2650 N   0  0  0  0  0  0  0  0  0  0  0  0
    4.9980    5.0960   17.5160 C   0  0  0  0  0  0  0  0  0  0  0  0
    7.7360    4.0350   15.1430 H   0  0  0  0  0  0  0  0  0  0  0  0
    6.7790    5.4260   19.3130 C   0  0  0  0  0  0  0  0  0  0  0  0
    6.2600    6.3250   19.6570 H   0  0  0  0  0  0  0  0  0  0  0  0
    6.5790    4.5990   20.0010 H   0  0  0  0  0  0  0  0  0  0  0  0
    7.8560    5.6300   19.3480 H   0  0  0  0  0  0  0  0  0  0  0  0
    0.6630    9.0130   19.0560 N   0  0  0  0  0  0  0  0  0  0  0  0
    0.2430   10.3120   18.9650 C   0  0  0  0  0  0  0  0  0  0  0  0
    0.9980   11.2690   18.9000 O   0  0  0  0  0  0  0  0  0  0  0  0
   -1.1200   10.4050   19.0100 N   0  0  0  0  0  0  0  0  0  0  0  0
    0.0490    8.3270   18.6490 H   0  0  0  0  0  0  0  0  0  0  0  0
   -1.6010    9.6040   19.3810 H   0  0  0  0  0  0  0  0  0  0  0  0
   -1.8050   11.6810   19.0820 C   0  0  0  0  0  0  0  0  0  0  0  0
   -1.1480   12.4900   18.7320 H   0  0  0  0  0  0  0  0  0  0  0  0
   -2.6340   11.6090   18.3710 H   0  0  0  0  0  0  0  0  0  0  0  0
   -2.2620   11.9730   20.4940 C   0  0  0  0  0  0  0  0  0  0  0  0
   -1.3480   11.7730   21.5520 C   0  0  0  0  0  0  0  0  0  0  0  0
   -1.7250   11.9790   22.8770 C   0  0  0  0  0  0  0  0  0  0  0  0
   -3.0100   12.4090   23.1590 C   0  0  0  0  0  0  0  0  0  0  0  0
   -3.3610   12.6290   24.4280 F   0  0  0  0  0  0  0  0  0  0  0  0
   -3.9320   12.6280   22.1430 C   0  0  0  0  0  0  0  0  0  0  0  0
   -3.5690   12.3970   20.8130 C   0  0  0  0  0  0  0  0  0  0  0  0
   -0.3200   11.4600   21.3410 H   0  0  0  0  0  0  0  0  0  0  0  0
   -1.0210   11.8080   23.6870 H   0  0  0  0  0  0  0  0  0  0  0  0
   -4.9250   13.0020   22.3970 H   0  0  0  0  0  0  0  0  0  0  0  0
   -4.5980   12.6490   19.7710 C   0  0  0  0  0  0  0  0  0  0  0  0
   -4.9560   13.9550   19.5970 N   0  0  0  0  0  0  0  0  0  0  0  0
   -5.0870   11.7440   19.1080 O   0  0  0  0  0  0  0  0  0  0  0  0
   -4.6030   14.7030   20.1730 H   0  0  0  0  0  0  0  0  0  0  0  0
   -5.6580   14.1630   18.9000 H   0  0  0  0  0  0  0  0  0  0  0  0
  1  2  1  0  0  0  0
  2 10  1  0  0  0  0
  2  3  2  0  0  0  0
  3 11  1  0  0  0  0
  4  3  1  0  0  0  0
  4 12  1  0  0  0  0
  5  4  2  0  0  0  0
  6  1  2  0  0  0  0
  6  5  1  0  0  0  0
  7  8  1  0  0  0  0
  7 14  1  0  0  0  0
  7  6  1  0  0  0  0
  8  9  1  0  0  0  0
  9 30  1  0  0  0  0
  9  5  1  0  0  0  0
  9 17  1  1  0  0  0
 13  7  1  0  0  0  0
 15  8  1  0  0  0  0
 16  8  1  0  0  0  0
 18 26  1  0  0  0  0
 19 18  2  0  0  0  0
 20 19  1  0  0  0  0
 21 20  2  0  0  0  0
 21 23  1  0  0  0  0
 22 21  1  0  0  0  0
 23 24  2  0  0  0  0
 24 18  1  0  0  0  0
 24  1  1  0  0  0  0
 25 20  1  0  0  0  0
 26 29  1  0  0  0  0
 26 27  1  0  0  0  0
 26 28  1  0  0  0  0
 31 33  1  0  0  0  0
 31 30  1  0  0  0  0
 32 31  2  0  0  0  0
 33 36  1  0  0  0  0
 33 35  1  0  0  0  0
 34 30  1  0  0  0  0
 36 39  1  0  0  0  0
 37 36  1  0  0  0  0
 38 36  1  0  0  0  0
 39 45  2  0  0  0  0
 39 40  1  0  0  0  0
 40 41  2  0  0  0  0
 41 42  1  0  0  0  0
 41 47  1  0  0  0  0
 42 43  1  0  0  0  0
 44 48  1  0  0  0  0
 44 42  2  0  0  0  0
 45 44  1  0  0  0  0
 46 40  1  0  0  0  0
 49 45  1  0  0  0  0
 50 49  1  0  0  0  0
 50 52  1  0  0  0  0
 51 49  2  0  0  0  0
 53 50  1  0  0  0  0
M  END
>  <MODEL>
16

>  <REMARK>
 VINA RESULT:    -7.957      4.898     10.376
 INTER + INTRA:         -10.354
 INTER:                  -9.729
 INTRA:                  -0.626
 UNBOUND:                 0.161
  Name = 
  6 active torsions:
  status: ('A' for Active; 'I' for Inactive)
    1  A    between atoms: C_1  and  C_2
    2  A    between atoms: C_8  and  C_9
    3  A    between atoms: C_17  and  N_18
    4  A    between atoms: N_21  and  C_22
    5  A    between atoms: C_22  and  C_23
    6  A    between atoms: C_29  and  C_30
                            x       y       z     vdW  Elec       q    Type
                         _______ _______ _______ _____ _____    ______ ____

>  <TORSDO>
F 6

$$$$
=
 OpenBabel07192307433D

 53 56  0  0  1  0  0  0  0  0999 V2000
   -3.7160   12.4340   19.8950 C   0  0  0  0  0  0  0  0  0  0  0  0
   -4.5900   11.9240   18.9130 C   0  0  0  0  0  0  0  0  0  0  0  0
   -4.1140   11.1870   17.8150 C   0  0  0  0  0  0  0  0  0  0  0  0
   -2.7530   10.9400   17.6630 C   0  0  0  0  0  0  0  0  0  0  0  0
   -1.8830   11.4250   18.6270 C   0  0  0  0  0  0  0  0  0  0  0  0
   -2.3570   12.1630   19.7250 C   0  0  0  0  0  0  0  0  0  0  0  0
   -1.2040   12.6430   20.5650 C   0  0  0  0  0  0  0  0  0  0  0  0
   -0.0760   11.7120   20.1030 C   0  0  0  0  0  0  0  0  0  0  0  0
   -0.3830   11.3590   18.6360 C   0  0  1  0  0  0  0  0  0  0  0  0
   -5.6590   12.1220   18.9780 H   0  0  0  0  0  0  0  0  0  0  0  0
   -4.8170   10.8270   17.0690 H   0  0  0  0  0  0  0  0  0  0  0  0
   -2.3800   10.3970   16.7980 H   0  0  0  0  0  0  0  0  0  0  0  0
   -1.3860   12.5330   21.6430 H   0  0  0  0  0  0  0  0  0  0  0  0
   -0.9740   13.6870   20.3270 H   0  0  0  0  0  0  0  0  0  0  0  0
   -0.0790   10.8050   20.7240 H   0  0  0  0  0  0  0  0  0  0  0  0
    0.9090   12.1750   20.2210 H   0  0  0  0  0  0  0  0  0  0  0  0
    0.0230   12.1270   17.9650 H   0  0  0  0  0  0  0  0  0  0  0  0
   -4.7280   14.5410   20.8870 C   0  0  0  0  0  0  0  0  0  0  0  0
   -5.1470   15.2550   21.9690 N   0  0  0  0  0  0  0  0  0  0  0  0
   -5.0570   14.6210   23.1660 C   0  0  0  0  0  0  0  0  0  0  0  0
   -4.5800   13.3250   23.2940 C   0  0  0  0  0  0  0  0  0  0  0  0
   -4.5200   12.5100   25.0030 Br  0  0  0  0  0  0  0  0  0  0  0  0
   -4.1550   12.6130   22.2270 N   0  0  0  0  0  0  0  0  0  0  0  0
   -4.2170   13.2350   21.0180 C   0  0  0  0  0  0  0  0  0  0  0  0
   -5.3910   15.1950   24.0240 H   0  0  0  0  0  0  0  0  0  0  0  0
   -4.8610   15.2240   19.5560 C   0  0  0  0  0  0  0  0  0  0  0  0
   -5.6500   15.9810   19.5890 H   0  0  0  0  0  0  0  0  0  0  0  0
   -3.9140   15.6900   19.2680 H   0  0  0  0  0  0  0  0  0  0  0  0
   -5.1250   14.5040   18.7710 H   0  0  0  0  0  0  0  0  0  0  0  0
    0.1200   10.0580   18.2600 N   0  0  0  0  0  0  0  0  0  0  0  0
    1.4670    9.8660   18.1080 C   0  0  0  0  0  0  0  0  0  0  0  0
    2.2990   10.7510   18.2310 O   0  0  0  0  0  0  0  0  0  0  0  0
    1.7540    8.5780   17.7500 N   0  0  0  0  0  0  0  0  0  0  0  0
   -0.3980    9.2620   18.5950 H   0  0  0  0  0  0  0  0  0  0  0  0
    0.9880    8.0470   17.3740 H   0  0  0  0  0  0  0  0  0  0  0  0
    3.0940    8.1600   17.3840 C   0  0  0  0  0  0  0  0  0  0  0  0
    3.2030    8.1310   16.2910 H   0  0  0  0  0  0  0  0  0  0  0  0
    3.7580    8.9480   17.7530 H   0  0  0  0  0  0  0  0  0  0  0  0
    3.4140    6.8000   17.9630 C   0  0  0  0  0  0  0  0  0  0  0  0
    2.6050    6.3070   19.0110 C   0  0  0  0  0  0  0  0  0  0  0  0
    2.8790    5.0840   19.6170 C   0  0  0  0  0  0  0  0  0  0  0  0
    3.9470    4.3260   19.1670 C   0  0  0  0  0  0  0  0  0  0  0  0
    4.1920    3.1430   19.7340 F   0  0  0  0  0  0  0  0  0  0  0  0
    4.7560    4.7740   18.1300 C   0  0  0  0  0  0  0  0  0  0  0  0
    4.5040    6.0140   17.5360 C   0  0  0  0  0  0  0  0  0  0  0  0
    1.7400    6.8830   19.3580 H   0  0  0  0  0  0  0  0  0  0  0  0
    2.2620    4.7190   20.4340 H   0  0  0  0  0  0  0  0  0  0  0  0
    5.5680    4.1350   17.7750 H   0  0  0  0  0  0  0  0  0  0  0  0
    5.4040    6.4360   16.4320 C   0  0  0  0  0  0  0  0  0  0  0  0
    6.5950    6.9830   16.8150 N   0  0  0  0  0  0  0  0  0  0  0  0
    5.0970    6.2970   15.2550 O   0  0  0  0  0  0  0  0  0  0  0  0
    6.8360    7.1550   17.7780 H   0  0  0  0  0  0  0  0  0  0  0  0
    7.2300    7.2860   16.0900 H   0  0  0  0  0  0  0  0  0  0  0  0
  1 24  1  0  0  0  0
  2 10  1  0  0  0  0
  2  1  2  0  0  0  0
  3  2  1  0  0  0  0
  4  3  2  0  0  0  0
  4  5  1  0  0  0  0
  5  9  1  0  0  0  0
  5  6  2  0  0  0  0
  6  1  1  0  0  0  0
  6  7  1  0  0  0  0
  7 13  1  0  0  0  0
  8 16  1  0  0  0  0
  8  7  1  0  0  0  0
  8 15  1  0  0  0  0
  9 17  1  6  0  0  0
  9  8  1  0  0  0  0
 11  3  1  0  0  0  0
 12  4  1  0  0  0  0
 14  7  1  0  0  0  0
 18 24  2  0  0  0  0
 18 19  1  0  0  0  0
 19 20  2  0  0  0  0
 20 21  1  0  0  0  0
 20 25  1  0  0  0  0
 21 22  1  0  0  0  0
 23 21  2  0  0  0  0
 24 23  1  0  0  0  0
 26 27  1  0  0  0  0
 26 18  1  0  0  0  0
 28 26  1  0  0  0  0
 29 26  1  0  0  0  0
 30 34  1  0  0  0  0
 30  9  1  0  0  0  0
 31 32  2  0  0  0  0
 31 30  1  0  0  0  0
 33 31  1  0  0  0  0
 35 33  1  0  0  0  0
 36 33  1  0  0  0  0
 36 38  1  0  0  0  0
 36 39  1  0  0  0  0
 37 36  1  0  0  0  0
 39 40  1  0  0  0  0
 40 46  1  0  0  0  0
 40 41  2  0  0  0  0
 41 47  1  0  0  0  0
 42 41  1  0  0  0  0
 42 43  1  0  0  0  0
 44 42  2  0  0  0  0
 45 39  2  0  0  0  0
 45 44  1  0  0  0  0
 48 44  1  0  0  0  0
 49 50  1  0  0  0  0
 49 45  1  0  0  0  0
 50 52  1  0  0  0  0
 51 49  2  0  0  0  0
 53 50  1  0  0  0  0
M  END
>  <MODEL>
17

>  <REMARK>
 VINA RESULT:    -7.898      2.957      4.321
 INTER + INTRA:         -10.277
 INTER:                  -9.668
 INTRA:                  -0.609
 UNBOUND:                 0.161
  Name = 
  6 active torsions:
  status: ('A' for Active; 'I' for Inactive)
    1  A    between atoms: C_1  and  C_2
    2  A    between atoms: C_8  and  C_9
    3  A    between atoms: C_17  and  N_18
    4  A    between atoms: N_21  and  C_22
    5  A    between atoms: C_22  and  C_23
    6  A    between atoms: C_29  and  C_30
                            x       y       z     vdW  Elec       q    Type
                         _______ _______ _______ _____ _____    ______ ____

>  <TORSDO>
F 6

$$$$
=
 OpenBabel07192307433D

 53 56  0  0  1  0  0  0  0  0999 V2000
    2.6360    6.9790   19.0070 C   0  0  0  0  0  0  0  0  0  0  0  0
    2.8690    7.5390   17.7340 C   0  0  0  0  0  0  0  0  0  0  0  0
    2.3600    8.8000   17.3800 C   0  0  0  0  0  0  0  0  0  0  0  0
    1.5990    9.5370   18.2830 C   0  0  0  0  0  0  0  0  0  0  0  0
    1.3730    9.0040   19.5430 C   0  0  0  0  0  0  0  0  0  0  0  0
    1.8800    7.7430   19.8980 C   0  0  0  0  0  0  0  0  0  0  0  0
    1.4160    7.3670   21.2790 C   0  0  0  0  0  0  0  0  0  0  0  0
    0.9950    8.7280   21.8470 C   0  0  0  0  0  0  0  0  0  0  0  0
    0.5230    9.5680   20.6450 C   0  0  1  0  0  0  0  0  0  0  0  0
    3.4320    6.9810   16.9870 H   0  0  0  0  0  0  0  0  0  0  0  0
    2.5440    9.1900   16.3830 H   0  0  0  0  0  0  0  0  0  0  0  0
    1.1780   10.4990   18.0000 H   0  0  0  0  0  0  0  0  0  0  0  0
    2.2100    6.9170   21.8890 H   0  0  0  0  0  0  0  0  0  0  0  0
    0.5600    6.6860   21.2150 H   0  0  0  0  0  0  0  0  0  0  0  0
    1.8630    9.2020   22.3270 H   0  0  0  0  0  0  0  0  0  0  0  0
    0.2200    8.6280   22.6140 H   0  0  0  0  0  0  0  0  0  0  0  0
   -0.5350    9.3680   20.4330 H   0  0  0  0  0  0  0  0  0  0  0  0
    4.3890    5.1440   18.9430 C   0  0  0  0  0  0  0  0  0  0  0  0
    4.7940    3.8840   19.2650 N   0  0  0  0  0  0  0  0  0  0  0  0
    3.9280    3.1590   20.0190 C   0  0  0  0  0  0  0  0  0  0  0  0
    2.7090    3.6620   20.4500 C   0  0  0  0  0  0  0  0  0  0  0  0
    1.5770    2.5880   21.5260 Br  0  0  0  0  0  0  0  0  0  0  0  0
    2.2960    4.9070   20.1280 N   0  0  0  0  0  0  0  0  0  0  0  0
    3.1390    5.6460   19.3560 C   0  0  0  0  0  0  0  0  0  0  0  0
    4.2540    2.1560   20.2720 H   0  0  0  0  0  0  0  0  0  0  0  0
    5.3610    5.9620   18.1410 C   0  0  0  0  0  0  0  0  0  0  0  0
    5.1580    5.8610   17.0710 H   0  0  0  0  0  0  0  0  0  0  0  0
    5.3040    7.0150   18.4310 H   0  0  0  0  0  0  0  0  0  0  0  0
    6.3920    5.6280   18.3170 H   0  0  0  0  0  0  0  0  0  0  0  0
    0.7300   10.9840   20.8410 N   0  0  0  0  0  0  0  0  0  0  0  0
   -0.3410   11.8360   20.8410 C   0  0  0  0  0  0  0  0  0  0  0  0
   -1.4930   11.4820   20.6430 O   0  0  0  0  0  0  0  0  0  0  0  0
    0.0470   13.1320   21.0370 N   0  0  0  0  0  0  0  0  0  0  0  0
    1.4960   11.2470   21.4390 H   0  0  0  0  0  0  0  0  0  0  0  0
    1.0170   13.3290   20.8670 H   0  0  0  0  0  0  0  0  0  0  0  0
   -0.8830   14.2400   20.9310 C   0  0  0  0  0  0  0  0  0  0  0  0
   -0.3650   15.1460   20.5880 H   0  0  0  0  0  0  0  0  0  0  0  0
   -1.5900   13.9550   20.1450 H   0  0  0  0  0  0  0  0  0  0  0  0
   -1.5560   14.5110   22.2580 C   0  0  0  0  0  0  0  0  0  0  0  0
   -0.7500   14.8770   23.3590 C   0  0  0  0  0  0  0  0  0  0  0  0
   -1.3060   15.0930   24.6180 C   0  0  0  0  0  0  0  0  0  0  0  0
   -2.6750   14.9720   24.7860 C   0  0  0  0  0  0  0  0  0  0  0  0
   -3.2070   15.2040   25.9880 F   0  0  0  0  0  0  0  0  0  0  0  0
   -3.5000   14.6260   23.7230 C   0  0  0  0  0  0  0  0  0  0  0  0
   -2.9450   14.3810   22.4640 C   0  0  0  0  0  0  0  0  0  0  0  0
    0.3300   15.0030   23.2340 H   0  0  0  0  0  0  0  0  0  0  0  0
   -0.6770   15.3580   25.4640 H   0  0  0  0  0  0  0  0  0  0  0  0
   -4.5790   14.5760   23.8820 H   0  0  0  0  0  0  0  0  0  0  0  0
   -3.8790   14.0160   21.3670 C   0  0  0  0  0  0  0  0  0  0  0  0
   -4.1440   12.6830   21.2330 N   0  0  0  0  0  0  0  0  0  0  0  0
   -4.3820   14.8590   20.6350 O   0  0  0  0  0  0  0  0  0  0  0  0
   -3.6940   11.9760   21.7910 H   0  0  0  0  0  0  0  0  0  0  0  0
   -4.7710   12.3990   20.4940 H   0  0  0  0  0  0  0  0  0  0  0  0
  1 24  1  0  0  0  0
  1  6  1  0  0  0  0
  2  1  2  0  0  0  0
  3  2  1  0  0  0  0
  3  4  2  0  0  0  0
  4  5  1  0  0  0  0
  5  6  2  0  0  0  0
  5  9  1  0  0  0  0
  6  7  1  0  0  0  0
  7  8  1  0  0  0  0
  7 13  1  0  0  0  0
  8 15  1  0  0  0  0
  8 16  1  0  0  0  0
  9 17  1  6  0  0  0
  9 30  1  0  0  0  0
  9  8  1  0  0  0  0
 10  2  1  0  0  0  0
 11  3  1  0  0  0  0
 12  4  1  0  0  0  0
 14  7  1  0  0  0  0
 18 19  2  0  0  0  0
 18 24  1  0  0  0  0
 19 20  1  0  0  0  0
 20 25  1  0  0  0  0
 20 21  2  0  0  0  0
 21 22  1  0  0  0  0
 23 21  1  0  0  0  0
 24 23  2  0  0  0  0
 26 29  1  0  0  0  0
 26 28  1  0  0  0  0
 26 18  1  0  0  0  0
 27 26  1  0  0  0  0
 30 31  1  0  0  0  0
 30 34  1  0  0  0  0
 31 33  1  0  0  0  0
 32 31  2  0  0  0  0
 35 33  1  0  0  0  0
 36 33  1  0  0  0  0
 36 39  1  0  0  0  0
 37 36  1  0  0  0  0
 38 36  1  0  0  0  0
 39 45  2  0  0  0  0
 39 40  1  0  0  0  0
 40 41  2  0  0  0  0
 41 42  1  0  0  0  0
 41 47  1  0  0  0  0
 42 43  1  0  0  0  0
 44 48  1  0  0  0  0
 44 42  2  0  0  0  0
 45 44  1  0  0  0  0
 46 40  1  0  0  0  0
 49 45  1  0  0  0  0
 50 49  1  0  0  0  0
 50 52  1  0  0  0  0
 51 49  2  0  0  0  0
 53 50  1  0  0  0  0
M  END
>  <MODEL>
18

>  <REMARK>
 VINA RESULT:    -7.821      4.980     10.643
 INTER + INTRA:         -10.175
 INTER:                  -9.917
 INTRA:                  -0.258
 UNBOUND:                 0.161
  Name = 
  6 active torsions:
  status: ('A' for Active; 'I' for Inactive)
    1  A    between atoms: C_1  and  C_2
    2  A    between atoms: C_8  and  C_9
    3  A    between atoms: C_17  and  N_18
    4  A    between atoms: N_21  and  C_22
    5  A    between atoms: C_22  and  C_23
    6  A    between atoms: C_29  and  C_30
                            x       y       z     vdW  Elec       q    Type
                         _______ _______ _______ _____ _____    ______ ____

>  <TORSDO>
F 6

$$$$
=
 OpenBabel07192307433D

 53 56  0  0  1  0  0  0  0  0999 V2000
    4.3090    4.5950   17.0010 C   0  0  0  0  0  0  0  0  0  0  0  0
    3.7590    3.4970   17.6910 C   0  0  0  0  0  0  0  0  0  0  0  0
    2.9080    3.6730   18.7960 C   0  0  0  0  0  0  0  0  0  0  0  0
    2.5850    4.9490   19.2460 C   0  0  0  0  0  0  0  0  0  0  0  0
    3.1090    6.0390   18.5690 C   0  0  0  0  0  0  0  0  0  0  0  0
    3.9610    5.8650   17.4650 C   0  0  0  0  0  0  0  0  0  0  0  0
    4.4560    7.2000   16.9750 C   0  0  0  0  0  0  0  0  0  0  0  0
    3.4380    8.1580   17.6040 C   0  0  0  0  0  0  0  0  0  0  0  0
    2.9740    7.4940   18.9140 C   0  0  1  0  0  0  0  0  0  0  0  0
    4.0120    2.4810   17.3910 H   0  0  0  0  0  0  0  0  0  0  0  0
    2.5180    2.8010   19.3140 H   0  0  0  0  0  0  0  0  0  0  0  0
    1.9520    5.0870   20.1190 H   0  0  0  0  0  0  0  0  0  0  0  0
    4.4490    7.2820   15.8810 H   0  0  0  0  0  0  0  0  0  0  0  0
    5.4640    7.3900   17.3600 H   0  0  0  0  0  0  0  0  0  0  0  0
    2.5880    8.2830   16.9170 H   0  0  0  0  0  0  0  0  0  0  0  0
    3.8620    9.1530   17.7710 H   0  0  0  0  0  0  0  0  0  0  0  0
    3.6610    7.7440   19.7330 H   0  0  0  0  0  0  0  0  0  0  0  0
    6.6260    4.5380   15.9630 C   0  0  0  0  0  0  0  0  0  0  0  0
    7.4300    4.3840   14.8740 N   0  0  0  0  0  0  0  0  0  0  0  0
    6.8000    4.0750   13.7120 C   0  0  0  0  0  0  0  0  0  0  0  0
    5.4240    3.9140   13.6260 C   0  0  0  0  0  0  0  0  0  0  0  0
    4.6340    3.4530   11.9670 Br  0  0  0  0  0  0  0  0  0  0  0  0
    4.6190    4.0740   14.6990 N   0  0  0  0  0  0  0  0  0  0  0  0
    5.2270    4.4030   15.8720 C   0  0  0  0  0  0  0  0  0  0  0  0
    7.4440    3.9550   12.8480 H   0  0  0  0  0  0  0  0  0  0  0  0
    7.3240    4.8420   17.2580 C   0  0  0  0  0  0  0  0  0  0  0  0
    7.0660    5.8450   17.6080 H   0  0  0  0  0  0  0  0  0  0  0  0
    7.0540    4.1040   18.0200 H   0  0  0  0  0  0  0  0  0  0  0  0
    8.4130    4.8030   17.1340 H   0  0  0  0  0  0  0  0  0  0  0  0
    1.6230    7.8580   19.2740 N   0  0  0  0  0  0  0  0  0  0  0  0
    1.2160    9.1610   19.1670 C   0  0  0  0  0  0  0  0  0  0  0  0
    1.9460   10.0750   18.8150 O   0  0  0  0  0  0  0  0  0  0  0  0
   -0.0860    9.3150   19.5510 N   0  0  0  0  0  0  0  0  0  0  0  0
    0.9120    7.1650   19.1080 H   0  0  0  0  0  0  0  0  0  0  0  0
   -0.4680    8.5720   20.1100 H   0  0  0  0  0  0  0  0  0  0  0  0
   -0.7060   10.6210   19.6700 C   0  0  0  0  0  0  0  0  0  0  0  0
   -1.0600   10.7870   20.6970 H   0  0  0  0  0  0  0  0  0  0  0  0
    0.0950   11.3430   19.4850 H   0  0  0  0  0  0  0  0  0  0  0  0
   -1.8610   10.7620   18.7040 C   0  0  0  0  0  0  0  0  0  0  0  0
   -1.9060    9.9100   17.5780 C   0  0  0  0  0  0  0  0  0  0  0  0
   -2.9180   10.0230   16.6290 C   0  0  0  0  0  0  0  0  0  0  0  0
   -3.9120   10.9720   16.8050 C   0  0  0  0  0  0  0  0  0  0  0  0
   -4.8940   11.0610   15.9060 F   0  0  0  0  0  0  0  0  0  0  0  0
   -3.9070   11.8180   17.9060 C   0  0  0  0  0  0  0  0  0  0  0  0
   -2.8790   11.7280   18.8490 C   0  0  0  0  0  0  0  0  0  0  0  0
   -1.1420    9.1370   17.4420 H   0  0  0  0  0  0  0  0  0  0  0  0
   -2.9360    9.3750   15.7570 H   0  0  0  0  0  0  0  0  0  0  0  0
   -4.7260   12.5290   18.0340 H   0  0  0  0  0  0  0  0  0  0  0  0
   -2.9290   12.6600   20.0050 C   0  0  0  0  0  0  0  0  0  0  0  0
   -2.2080   13.8110   19.8700 N   0  0  0  0  0  0  0  0  0  0  0  0
   -3.5820   12.4120   21.0110 O   0  0  0  0  0  0  0  0  0  0  0  0
   -1.6230   14.0020   19.0720 H   0  0  0  0  0  0  0  0  0  0  0  0
   -2.2160   14.4660   20.6390 H   0  0  0  0  0  0  0  0  0  0  0  0
  1  6  2  0  0  0  0
  1  2  1  0  0  0  0
  2  3  2  0  0  0  0
  3  4  1  0  0  0  0
  3 11  1  0  0  0  0
  4 12  1  0  0  0  0
  5  9  1  0  0  0  0
  5  4  2  0  0  0  0
  6  5  1  0  0  0  0
  7 14  1  0  0  0  0
  7  6  1  0  0  0  0
  7  8  1  0  0  0  0
  8 16  1  0  0  0  0
  8  9  1  0  0  0  0
  9 30  1  0  0  0  0
  9 17  1  1  0  0  0
 10  2  1  0  0  0  0
 13  7  1  0  0  0  0
 15  8  1  0  0  0  0
 18 26  1  0  0  0  0
 19 18  2  0  0  0  0
 20 19  1  0  0  0  0
 21 20  2  0  0  0  0
 21 23  1  0  0  0  0
 22 21  1  0  0  0  0
 23 24  2  0  0  0  0
 24 18  1  0  0  0  0
 24  1  1  0  0  0  0
 25 20  1  0  0  0  0
 26 27  1  0  0  0  0
 26 28  1  0  0  0  0
 29 26  1  0  0  0  0
 31 30  1  0  0  0  0
 31 33  1  0  0  0  0
 32 31  2  0  0  0  0
 33 36  1  0  0  0  0
 33 35  1  0  0  0  0
 34 30  1  0  0  0  0
 36 37  1  0  0  0  0
 38 36  1  0  0  0  0
 39 45  1  0  0  0  0
 39 36  1  0  0  0  0
 40 39  2  0  0  0  0
 41 42  2  0  0  0  0
 41 40  1  0  0  0  0
 42 44  1  0  0  0  0
 43 42  1  0  0  0  0
 44 48  1  0  0  0  0
 44 45  2  0  0  0  0
 45 49  1  0  0  0  0
 46 40  1  0  0  0  0
 47 41  1  0  0  0  0
 49 51  2  0  0  0  0
 50 49  1  0  0  0  0
 50 53  1  0  0  0  0
 52 50  1  0  0  0  0
M  END
>  <MODEL>
19

>  <REMARK>
 VINA RESULT:    -7.781      4.739     10.284
 INTER + INTRA:         -10.122
 INTER:                  -9.836
 INTRA:                  -0.286
 UNBOUND:                 0.161
  Name = 
  6 active torsions:
  status: ('A' for Active; 'I' for Inactive)
    1  A    between atoms: C_1  and  C_2
    2  A    between atoms: C_8  and  C_9
    3  A    between atoms: C_17  and  N_18
    4  A    between atoms: N_21  and  C_22
    5  A    between atoms: C_22  and  C_23
    6  A    between atoms: C_29  and  C_30
                            x       y       z     vdW  Elec       q    Type
                         _______ _______ _______ _____ _____    ______ ____

>  <TORSDO>
F 6

$$$$
=
 OpenBabel07192307433D

 53 56  0  0  1  0  0  0  0  0999 V2000
   -2.2600   12.2560   20.1590 C   0  0  0  0  0  0  0  0  0  0  0  0
   -3.1220   11.7670   19.1570 C   0  0  0  0  0  0  0  0  0  0  0  0
   -2.6440   10.9800   18.0950 C   0  0  0  0  0  0  0  0  0  0  0  0
   -1.2920   10.6630   18.0000 C   0  0  0  0  0  0  0  0  0  0  0  0
   -0.4350   11.1270   18.9860 C   0  0  0  0  0  0  0  0  0  0  0  0
   -0.9110   11.9150   20.0480 C   0  0  0  0  0  0  0  0  0  0  0  0
    0.2320   12.3570   20.9210 C   0  0  0  0  0  0  0  0  0  0  0  0
    1.3290   11.3610   20.5230 C   0  0  0  0  0  0  0  0  0  0  0  0
    1.0590   10.9870   19.0530 C   0  0  1  0  0  0  0  0  0  0  0  0
   -4.1820   12.0190   19.1760 H   0  0  0  0  0  0  0  0  0  0  0  0
   -3.3360   10.6370   17.3300 H   0  0  0  0  0  0  0  0  0  0  0  0
   -0.9150   10.0810   17.1630 H   0  0  0  0  0  0  0  0  0  0  0  0
    0.0050   12.2830   21.9920 H   0  0  0  0  0  0  0  0  0  0  0  0
    0.5230   13.3830   20.6680 H   0  0  0  0  0  0  0  0  0  0  0  0
    1.2560   10.4710   21.1640 H   0  0  0  0  0  0  0  0  0  0  0  0
    2.3300   11.7780   20.6680 H   0  0  0  0  0  0  0  0  0  0  0  0
    1.5270   11.7180   18.3820 H   0  0  0  0  0  0  0  0  0  0  0  0
   -2.5720   14.5030   21.3010 C   0  0  0  0  0  0  0  0  0  0  0  0
   -3.0270   15.2430   22.3510 N   0  0  0  0  0  0  0  0  0  0  0  0
   -3.6860   14.5540   23.3180 C   0  0  0  0  0  0  0  0  0  0  0  0
   -3.8980   13.1850   23.2500 C   0  0  0  0  0  0  0  0  0  0  0  0
   -4.8550   12.3130   24.6330 Br  0  0  0  0  0  0  0  0  0  0  0  0
   -3.4420   12.4430   22.2170 N   0  0  0  0  0  0  0  0  0  0  0  0
   -2.7620   13.1080   21.2440 C   0  0  0  0  0  0  0  0  0  0  0  0
   -4.0450   15.1480   24.1510 H   0  0  0  0  0  0  0  0  0  0  0  0
   -1.8770   15.2670   20.2100 C   0  0  0  0  0  0  0  0  0  0  0  0
   -2.5810   15.9220   19.6900 H   0  0  0  0  0  0  0  0  0  0  0  0
   -1.0560   15.8600   20.6230 H   0  0  0  0  0  0  0  0  0  0  0  0
   -1.4470   14.5840   19.4670 H   0  0  0  0  0  0  0  0  0  0  0  0
    1.5090    9.6540   18.7270 N   0  0  0  0  0  0  0  0  0  0  0  0
    1.5330    8.6870   19.6950 C   0  0  0  0  0  0  0  0  0  0  0  0
    1.2300    8.8830   20.8610 O   0  0  0  0  0  0  0  0  0  0  0  0
    1.9870    7.4950   19.2040 N   0  0  0  0  0  0  0  0  0  0  0  0
    1.3150    9.3310   17.7930 H   0  0  0  0  0  0  0  0  0  0  0  0
    2.4970    7.5430   18.3390 H   0  0  0  0  0  0  0  0  0  0  0  0
    2.2460    6.3560   20.0630 C   0  0  0  0  0  0  0  0  0  0  0  0
    2.9340    6.6330   20.8740 H   0  0  0  0  0  0  0  0  0  0  0  0
    1.2840    6.1130   20.5250 H   0  0  0  0  0  0  0  0  0  0  0  0
    2.8290    5.2040   19.2750 C   0  0  0  0  0  0  0  0  0  0  0  0
    3.6090    5.4960   18.1330 C   0  0  0  0  0  0  0  0  0  0  0  0
    4.1320    4.4780   17.3400 C   0  0  0  0  0  0  0  0  0  0  0  0
    3.9040    3.1580   17.6900 C   0  0  0  0  0  0  0  0  0  0  0  0
    4.4280    2.1850   16.9410 F   0  0  0  0  0  0  0  0  0  0  0  0
    3.1530    2.8340   18.8120 C   0  0  0  0  0  0  0  0  0  0  0  0
    2.6020    3.8500   19.5980 C   0  0  0  0  0  0  0  0  0  0  0  0
    3.8200    6.5350   17.8610 H   0  0  0  0  0  0  0  0  0  0  0  0
    4.7170    4.7110   16.4540 H   0  0  0  0  0  0  0  0  0  0  0  0
    3.0240    1.7830   19.0810 H   0  0  0  0  0  0  0  0  0  0  0  0
    1.8090    3.4400   20.7860 C   0  0  0  0  0  0  0  0  0  0  0  0
    0.4880    3.1800   20.5550 N   0  0  0  0  0  0  0  0  0  0  0  0
    2.3100    3.3370   21.8980 O   0  0  0  0  0  0  0  0  0  0  0  0
    0.0510    3.3150   19.6580 H   0  0  0  0  0  0  0  0  0  0  0  0
   -0.0830    2.9030   21.3410 H   0  0  0  0  0  0  0  0  0  0  0  0
  1 24  1  0  0  0  0
  2 10  1  0  0  0  0
  2  1  2  0  0  0  0
  3  2  1  0  0  0  0
  4  3  2  0  0  0  0
  4  5  1  0  0  0  0
  5  9  1  0  0  0  0
  5  6  2  0  0  0  0
  6  1  1  0  0  0  0
  6  7  1  0  0  0  0
  7 13  1  0  0  0  0
  8 16  1  0  0  0  0
  8  7  1  0  0  0  0
  8 15  1  0  0  0  0
  9 17  1  6  0  0  0
  9  8  1  0  0  0  0
 11  3  1  0  0  0  0
 12  4  1  0  0  0  0
 14  7  1  0  0  0  0
 18 19  1  0  0  0  0
 19 20  2  0  0  0  0
 20 25  1  0  0  0  0
 21 20  1  0  0  0  0
 21 22  1  0  0  0  0
 23 21  2  0  0  0  0
 24 18  2  0  0  0  0
 24 23  1  0  0  0  0
 26 28  1  0  0  0  0
 26 18  1  0  0  0  0
 27 26  1  0  0  0  0
 29 26  1  0  0  0  0
 30  9  1  0  0  0  0
 30 31  1  0  0  0  0
 31 32  2  0  0  0  0
 33 31  1  0  0  0  0
 33 36  1  0  0  0  0
 34 30  1  0  0  0  0
 35 33  1  0  0  0  0
 36 38  1  0  0  0  0
 36 37  1  0  0  0  0
 39 45  1  0  0  0  0
 39 36  1  0  0  0  0
 40 39  2  0  0  0  0
 41 42  2  0  0  0  0
 41 40  1  0  0  0  0
 42 44  1  0  0  0  0
 43 42  1  0  0  0  0
 44 48  1  0  0  0  0
 44 45  2  0  0  0  0
 45 49  1  0  0  0  0
 46 40  1  0  0  0  0
 47 41  1  0  0  0  0
 49 51  2  0  0  0  0
 50 49  1  0  0  0  0
 50 53  1  0  0  0  0
 52 50  1  0  0  0  0
M  END
>  <MODEL>
20

>  <REMARK>
 VINA RESULT:    -7.697      2.323      3.232
 INTER + INTRA:         -10.011
 INTER:                  -9.985
 INTRA:                  -0.026
 UNBOUND:                 0.161
  Name = 
  6 active torsions:
  status: ('A' for Active; 'I' for Inactive)
    1  A    between atoms: C_1  and  C_2
    2  A    between atoms: C_8  and  C_9
    3  A    between atoms: C_17  and  N_18
    4  A    between atoms: N_21  and  C_22
    5  A    between atoms: C_22  and  C_23
    6  A    between atoms: C_29  and  C_30
                            x       y       z     vdW  Elec       q    Type
                         _______ _______ _______ _____ _____    ______ ____

>  <TORSDO>
F 6

$$$$
=
 OpenBabel07192307433D

 53 56  0  0  1  0  0  0  0  0999 V2000
   -1.0250   12.5130   19.4580 C   0  0  0  0  0  0  0  0  0  0  0  0
   -0.3510   13.6310   18.9260 C   0  0  0  0  0  0  0  0  0  0  0  0
    0.9730   13.5420   18.4650 C   0  0  0  0  0  0  0  0  0  0  0  0
    1.6650   12.3360   18.5250 C   0  0  0  0  0  0  0  0  0  0  0  0
    1.0110   11.2260   19.0340 C   0  0  0  0  0  0  0  0  0  0  0  0
   -0.3130   11.3130   19.4970 C   0  0  0  0  0  0  0  0  0  0  0  0
   -0.7490    9.9940   20.0760 C   0  0  0  0  0  0  0  0  0  0  0  0
    0.2820    9.0340   19.4710 C   0  0  0  0  0  0  0  0  0  0  0  0
    1.5710    9.8530   19.2750 C   0  0  1  0  0  0  0  0  0  0  0  0
   -0.8470   14.6010   18.8910 H   0  0  0  0  0  0  0  0  0  0  0  0
    1.4660   14.4310   18.0800 H   0  0  0  0  0  0  0  0  0  0  0  0
    2.7000   12.2730   18.1980 H   0  0  0  0  0  0  0  0  0  0  0  0
   -1.7680    9.7140   19.7790 H   0  0  0  0  0  0  0  0  0  0  0  0
   -0.6690   10.0190   21.1680 H   0  0  0  0  0  0  0  0  0  0  0  0
   -0.0910    8.6690   18.5030 H   0  0  0  0  0  0  0  0  0  0  0  0
    0.4410    8.1540   20.1030 H   0  0  0  0  0  0  0  0  0  0  0  0
    2.1660    9.8540   20.1970 H   0  0  0  0  0  0  0  0  0  0  0  0
   -3.5330   12.1540   19.2860 C   0  0  0  0  0  0  0  0  0  0  0  0
   -4.7870   12.3140   19.7920 N   0  0  0  0  0  0  0  0  0  0  0  0
   -4.8640   12.9320   20.9980 C   0  0  0  0  0  0  0  0  0  0  0  0
   -3.7430   13.3700   21.6880 C   0  0  0  0  0  0  0  0  0  0  0  0
   -3.9450   14.1960   23.3810 Br  0  0  0  0  0  0  0  0  0  0  0  0
   -2.4960   13.2230   21.1890 N   0  0  0  0  0  0  0  0  0  0  0  0
   -2.3950   12.6230   19.9720 C   0  0  0  0  0  0  0  0  0  0  0  0
   -5.8650   13.0580   21.3960 H   0  0  0  0  0  0  0  0  0  0  0  0
   -3.4410   11.4360   17.9700 C   0  0  0  0  0  0  0  0  0  0  0  0
   -4.2610   10.7210   17.8630 H   0  0  0  0  0  0  0  0  0  0  0  0
   -3.4640   12.1510   17.1420 H   0  0  0  0  0  0  0  0  0  0  0  0
   -2.5000   10.8760   17.8940 H   0  0  0  0  0  0  0  0  0  0  0  0
    2.3710    9.3760   18.1700 N   0  0  0  0  0  0  0  0  0  0  0  0
    2.6770    8.0450   18.0760 C   0  0  0  0  0  0  0  0  0  0  0  0
    2.3470    7.2100   18.9030 O   0  0  0  0  0  0  0  0  0  0  0  0
    3.4390    7.7820   16.9720 N   0  0  0  0  0  0  0  0  0  0  0  0
    2.2620    9.8610   17.2950 H   0  0  0  0  0  0  0  0  0  0  0  0
    3.9030    8.5730   16.5610 H   0  0  0  0  0  0  0  0  0  0  0  0
    4.0170    6.4740   16.7290 C   0  0  0  0  0  0  0  0  0  0  0  0
    3.2850    5.6830   16.9430 H   0  0  0  0  0  0  0  0  0  0  0  0
    4.2230    6.4400   15.6540 H   0  0  0  0  0  0  0  0  0  0  0  0
    5.2550    6.2630   17.5720 C   0  0  0  0  0  0  0  0  0  0  0  0
    6.3730    7.0970   17.3470 C   0  0  0  0  0  0  0  0  0  0  0  0
    7.5570    6.9210   18.0580 C   0  0  0  0  0  0  0  0  0  0  0  0
    7.6310    5.9280   19.0200 C   0  0  0  0  0  0  0  0  0  0  0  0
    8.7590    5.7780   19.7180 F   0  0  0  0  0  0  0  0  0  0  0  0
    6.5470    5.0980   19.2780 C   0  0  0  0  0  0  0  0  0  0  0  0
    5.3650    5.2510   18.5480 C   0  0  0  0  0  0  0  0  0  0  0  0
    6.3190    7.9040   16.6090 H   0  0  0  0  0  0  0  0  0  0  0  0
    8.4180    7.5560   17.8680 H   0  0  0  0  0  0  0  0  0  0  0  0
    6.6270    4.3490   20.0690 H   0  0  0  0  0  0  0  0  0  0  0  0
    4.2410    4.3340   18.8700 C   0  0  0  0  0  0  0  0  0  0  0  0
    3.4670    4.6970   19.9340 N   0  0  0  0  0  0  0  0  0  0  0  0
    4.0210    3.3210   18.2170 O   0  0  0  0  0  0  0  0  0  0  0  0
    3.6690    5.4960   20.5130 H   0  0  0  0  0  0  0  0  0  0  0  0
    2.6960    4.0930   20.1850 H   0  0  0  0  0  0  0  0  0  0  0  0
  1  6  1  0  0  0  0
  1 24  1  0  0  0  0
  2  1  2  0  0  0  0
  3  4  2  0  0  0  0
  3  2  1  0  0  0  0
  4  5  1  0  0  0  0
  5  9  1  0  0  0  0
  5  6  2  0  0  0  0
  6  7  1  0  0  0  0
  7 14  1  0  0  0  0
  8  7  1  0  0  0  0
  8 16  1  0  0  0  0
  9  8  1  0  0  0  0
  9 17  1  1  0  0  0
 10  2  1  0  0  0  0
 11  3  1  0  0  0  0
 12  4  1  0  0  0  0
 13  7  1  0  0  0  0
 15  8  1  0  0  0  0
 18 19  2  0  0  0  0
 18 24  1  0  0  0  0
 19 20  1  0  0  0  0
 20 25  1  0  0  0  0
 20 21  2  0  0  0  0
 21 22  1  0  0  0  0
 23 21  1  0  0  0  0
 24 23  2  0  0  0  0
 26 18  1  0  0  0  0
 27 26  1  0  0  0  0
 28 26  1  0  0  0  0
 29 26  1  0  0  0  0
 30  9  1  0  0  0  0
 31 30  1  0  0  0  0
 31 32  2  0  0  0  0
 33 31  1  0  0  0  0
 34 30  1  0  0  0  0
 35 33  1  0  0  0  0
 36 37  1  0  0  0  0
 36 33  1  0  0  0  0
 36 39  1  0  0  0  0
 38 36  1  0  0  0  0
 39 45  1  0  0  0  0
 40 39  2  0  0  0  0
 40 41  1  0  0  0  0
 41 42  2  0  0  0  0
 42 44  1  0  0  0  0
 42 43  1  0  0  0  0
 44 48  1  0  0  0  0
 45 49  1  0  0  0  0
 45 44  2  0  0  0  0
 46 40  1  0  0  0  0
 47 41  1  0  0  0  0
 49 50  1  0  0  0  0
 50 53  1  0  0  0  0
 50 52  1  0  0  0  0
 51 49  2  0  0  0  0
M  END
>  <MODEL>
21

>  <REMARK>
 VINA RESULT:    -7.624      2.277      3.312
 INTER + INTRA:          -9.915
 INTER:                  -9.111
 INTRA:                  -0.804
 UNBOUND:                 0.161
  Name = 
  6 active torsions:
  status: ('A' for Active; 'I' for Inactive)
    1  A    between atoms: C_1  and  C_2
    2  A    between atoms: C_8  and  C_9
    3  A    between atoms: C_17  and  N_18
    4  A    between atoms: N_21  and  C_22
    5  A    between atoms: C_22  and  C_23
    6  A    between atoms: C_29  and  C_30
                            x       y       z     vdW  Elec       q    Type
                         _______ _______ _______ _____ _____    ______ ____

>  <TORSDO>
F 6

$$$$
=
 OpenBabel07192307433D

 53 56  0  0  1  0  0  0  0  0999 V2000
    3.8530    5.3020   18.2660 C   0  0  0  0  0  0  0  0  0  0  0  0
    3.1700    4.3790   19.0830 C   0  0  0  0  0  0  0  0  0  0  0  0
    2.1100    4.7780   19.9160 C   0  0  0  0  0  0  0  0  0  0  0  0
    1.7040    6.1080   19.9600 C   0  0  0  0  0  0  0  0  0  0  0  0
    2.3590    7.0240   19.1520 C   0  0  0  0  0  0  0  0  0  0  0  0
    3.4200    6.6280   18.3200 C   0  0  0  0  0  0  0  0  0  0  0  0
    4.0090    7.8250   17.6220 C   0  0  0  0  0  0  0  0  0  0  0  0
    2.8840    8.8560   17.7750 C   0  0  0  0  0  0  0  0  0  0  0  0
    2.1590    8.5110   19.0890 C   0  0  1  0  0  0  0  0  0  0  0  0
    3.4780    3.3340   19.1030 H   0  0  0  0  0  0  0  0  0  0  0  0
    1.6200    4.0410   20.5470 H   0  0  0  0  0  0  0  0  0  0  0  0
    0.9060    6.4240   20.6260 H   0  0  0  0  0  0  0  0  0  0  0  0
    4.2270    7.6370   16.5620 H   0  0  0  0  0  0  0  0  0  0  0  0
    4.9160    8.1530   18.1410 H   0  0  0  0  0  0  0  0  0  0  0  0
    2.1950    8.7670   16.9230 H   0  0  0  0  0  0  0  0  0  0  0  0
    3.2680    9.8820   17.7690 H   0  0  0  0  0  0  0  0  0  0  0  0
    2.6640    8.9870   19.9400 H   0  0  0  0  0  0  0  0  0  0  0  0
    6.3180    4.8310   17.8750 C   0  0  0  0  0  0  0  0  0  0  0  0
    7.3360    4.4710   17.0440 N   0  0  0  0  0  0  0  0  0  0  0  0
    6.9770    4.1520   15.7740 C   0  0  0  0  0  0  0  0  0  0  0  0
    5.6610    4.1770   15.3390 C   0  0  0  0  0  0  0  0  0  0  0  0
    5.2510    3.6860   13.5550 Br  0  0  0  0  0  0  0  0  0  0  0  0
    4.6460    4.5410   16.1540 N   0  0  0  0  0  0  0  0  0  0  0  0
    4.9830    4.8850   17.4270 C   0  0  0  0  0  0  0  0  0  0  0  0
    7.7910    3.8670   15.1170 H   0  0  0  0  0  0  0  0  0  0  0  0
    6.7060    5.1480   19.2920 C   0  0  0  0  0  0  0  0  0  0  0  0
    7.1920    6.1250   19.3480 H   0  0  0  0  0  0  0  0  0  0  0  0
    5.8260    5.1340   19.9410 H   0  0  0  0  0  0  0  0  0  0  0  0
    7.4120    4.4020   19.6800 H   0  0  0  0  0  0  0  0  0  0  0  0
    0.7640    8.8850   19.0690 N   0  0  0  0  0  0  0  0  0  0  0  0
    0.4130   10.2040   18.9640 C   0  0  0  0  0  0  0  0  0  0  0  0
    1.2180   11.1210   18.9240 O   0  0  0  0  0  0  0  0  0  0  0  0
   -0.9440   10.3650   18.9620 N   0  0  0  0  0  0  0  0  0  0  0  0
    0.1290    8.2310   18.6410 H   0  0  0  0  0  0  0  0  0  0  0  0
   -1.4780    9.5900   19.3170 H   0  0  0  0  0  0  0  0  0  0  0  0
   -1.5650   11.6750   19.0110 C   0  0  0  0  0  0  0  0  0  0  0  0
   -1.1480   12.3280   18.2320 H   0  0  0  0  0  0  0  0  0  0  0  0
   -2.6180   11.5090   18.7620 H   0  0  0  0  0  0  0  0  0  0  0  0
   -1.3740   12.3160   20.3670 C   0  0  0  0  0  0  0  0  0  0  0  0
   -1.9280   11.6760   21.4980 C   0  0  0  0  0  0  0  0  0  0  0  0
   -1.8270   12.2410   22.7670 C   0  0  0  0  0  0  0  0  0  0  0  0
   -1.1490   13.4380   22.9250 C   0  0  0  0  0  0  0  0  0  0  0  0
   -1.0320   13.9640   24.1460 F   0  0  0  0  0  0  0  0  0  0  0  0
   -0.5800   14.0890   21.8380 C   0  0  0  0  0  0  0  0  0  0  0  0
   -0.7020   13.5410   20.5580 C   0  0  0  0  0  0  0  0  0  0  0  0
   -2.4430   10.7150   21.3910 H   0  0  0  0  0  0  0  0  0  0  0  0
   -2.2700   11.7510   23.6300 H   0  0  0  0  0  0  0  0  0  0  0  0
   -0.0210   15.0120   22.0040 H   0  0  0  0  0  0  0  0  0  0  0  0
   -0.0720   14.2830   19.4350 C   0  0  0  0  0  0  0  0  0  0  0  0
    1.2080   13.9180   19.1290 N   0  0  0  0  0  0  0  0  0  0  0  0
   -0.6650   15.1610   18.8220 O   0  0  0  0  0  0  0  0  0  0  0  0
    1.7270   13.2380   19.6600 H   0  0  0  0  0  0  0  0  0  0  0  0
    1.6700   14.4060   18.3740 H   0  0  0  0  0  0  0  0  0  0  0  0
  1  6  2  0  0  0  0
  1  2  1  0  0  0  0
  2 10  1  0  0  0  0
  2  3  2  0  0  0  0
  3  4  1  0  0  0  0
  3 11  1  0  0  0  0
  4 12  1  0  0  0  0
  5  4  2  0  0  0  0
  6  5  1  0  0  0  0
  7  8  1  0  0  0  0
  7 14  1  0  0  0  0
  7  6  1  0  0  0  0
  8  9  1  0  0  0  0
  9  5  1  0  0  0  0
  9 17  1  1  0  0  0
 13  7  1  0  0  0  0
 15  8  1  0  0  0  0
 16  8  1  0  0  0  0
 18 26  1  0  0  0  0
 19 18  2  0  0  0  0
 20 19  1  0  0  0  0
 21 20  2  0  0  0  0
 21 23  1  0  0  0  0
 22 21  1  0  0  0  0
 23 24  2  0  0  0  0
 24 18  1  0  0  0  0
 24  1  1  0  0  0  0
 25 20  1  0  0  0  0
 26 27  1  0  0  0  0
 26 29  1  0  0  0  0
 26 28  1  0  0  0  0
 30  9  1  0  0  0  0
 31 30  1  0  0  0  0
 32 31  2  0  0  0  0
 33 31  1  0  0  0  0
 33 36  1  0  0  0  0
 33 35  1  0  0  0  0
 34 30  1  0  0  0  0
 36 39  1  0  0  0  0
 37 36  1  0  0  0  0
 38 36  1  0  0  0  0
 39 45  2  0  0  0  0
 39 40  1  0  0  0  0
 40 41  2  0  0  0  0
 41 42  1  0  0  0  0
 41 47  1  0  0  0  0
 42 43  1  0  0  0  0
 44 48  1  0  0  0  0
 44 42  2  0  0  0  0
 45 44  1  0  0  0  0
 46 40  1  0  0  0  0
 49 45  1  0  0  0  0
 50 49  1  0  0  0  0
 50 52  1  0  0  0  0
 51 49  2  0  0  0  0
 53 50  1  0  0  0  0
M  END
>  <MODEL>
22

>  <REMARK>
 VINA RESULT:    -7.577      4.796     10.264
 INTER + INTRA:          -9.852
 INTER:                  -8.847
 INTRA:                  -1.006
 UNBOUND:                 0.161
  Name = 
  6 active torsions:
  status: ('A' for Active; 'I' for Inactive)
    1  A    between atoms: C_1  and  C_2
    2  A    between atoms: C_8  and  C_9
    3  A    between atoms: C_17  and  N_18
    4  A    between atoms: N_21  and  C_22
    5  A    between atoms: C_22  and  C_23
    6  A    between atoms: C_29  and  C_30
                            x       y       z     vdW  Elec       q    Type
                         _______ _______ _______ _____ _____    ______ ____

>  <TORSDO>
F 6

$$$$
=
 OpenBabel07192307433D

 53 56  0  0  1  0  0  0  0  0999 V2000
   -0.0670   13.1380   19.9840 C   0  0  0  0  0  0  0  0  0  0  0  0
    0.6870   13.8180   19.0070 C   0  0  0  0  0  0  0  0  0  0  0  0
    1.6940   13.1700   18.2710 C   0  0  0  0  0  0  0  0  0  0  0  0
    1.9800   11.8260   18.4910 C   0  0  0  0  0  0  0  0  0  0  0  0
    1.2380   11.1410   19.4400 C   0  0  0  0  0  0  0  0  0  0  0  0
    0.2320   11.7880   20.1780 C   0  0  0  0  0  0  0  0  0  0  0  0
   -0.3530   10.8460   21.1960 C   0  0  0  0  0  0  0  0  0  0  0  0
    0.0860    9.4830   20.6450 C   0  0  0  0  0  0  0  0  0  0  0  0
    1.4170    9.7250   19.9080 C   0  0  1  0  0  0  0  0  0  0  0  0
    0.5170   14.8790   18.8260 H   0  0  0  0  0  0  0  0  0  0  0  0
    2.2670   13.7340   17.5390 H   0  0  0  0  0  0  0  0  0  0  0  0
    2.7800   11.3320   17.9450 H   0  0  0  0  0  0  0  0  0  0  0  0
   -1.4470   10.9090   21.2570 H   0  0  0  0  0  0  0  0  0  0  0  0
    0.0910   11.0330   22.1800 H   0  0  0  0  0  0  0  0  0  0  0  0
   -0.6770    9.1140   19.9460 H   0  0  0  0  0  0  0  0  0  0  0  0
    0.1820    8.7350   21.4380 H   0  0  0  0  0  0  0  0  0  0  0  0
    2.2580    9.6740   20.6110 H   0  0  0  0  0  0  0  0  0  0  0  0
   -0.8050   14.6740   21.8660 C   0  0  0  0  0  0  0  0  0  0  0  0
   -1.7960   15.2650   22.5900 N   0  0  0  0  0  0  0  0  0  0  0  0
   -3.0640   15.0040   22.1790 C   0  0  0  0  0  0  0  0  0  0  0  0
   -3.3460   14.1970   21.0880 C   0  0  0  0  0  0  0  0  0  0  0  0
   -5.1470   13.9140   20.5690 Br  0  0  0  0  0  0  0  0  0  0  0  0
   -2.3700   13.6000   20.3700 N   0  0  0  0  0  0  0  0  0  0  0  0
   -1.0910   13.8310   20.7740 C   0  0  0  0  0  0  0  0  0  0  0  0
   -3.8490   15.4760   22.7590 H   0  0  0  0  0  0  0  0  0  0  0  0
    0.6000   14.9910   22.2940 C   0  0  0  0  0  0  0  0  0  0  0  0
    0.7730   16.0700   22.2760 H   0  0  0  0  0  0  0  0  0  0  0  0
    0.7910   14.6010   23.2980 H   0  0  0  0  0  0  0  0  0  0  0  0
    1.3290   14.5270   21.6170 H   0  0  0  0  0  0  0  0  0  0  0  0
    1.6250    8.8010   18.8180 N   0  0  0  0  0  0  0  0  0  0  0  0
    2.0070    7.5130   19.0810 C   0  0  0  0  0  0  0  0  0  0  0  0
    2.2320    7.0840   20.2020 O   0  0  0  0  0  0  0  0  0  0  0  0
    2.1570    6.7880   17.9320 N   0  0  0  0  0  0  0  0  0  0  0  0
    1.0420    8.9240   18.0060 H   0  0  0  0  0  0  0  0  0  0  0  0
    2.2580    7.3230   17.0860 H   0  0  0  0  0  0  0  0  0  0  0  0
    2.6990    5.4430   17.9330 C   0  0  0  0  0  0  0  0  0  0  0  0
    2.2640    4.8540   18.7530 H   0  0  0  0  0  0  0  0  0  0  0  0
    2.3600    4.9890   16.9960 H   0  0  0  0  0  0  0  0  0  0  0  0
    4.2050    5.4650   18.0670 C   0  0  0  0  0  0  0  0  0  0  0  0
    4.9290    6.4500   17.3580 C   0  0  0  0  0  0  0  0  0  0  0  0
    6.3200    6.4920   17.4030 C   0  0  0  0  0  0  0  0  0  0  0  0
    7.0040    5.5690   18.1750 C   0  0  0  0  0  0  0  0  0  0  0  0
    8.3360    5.6280   18.2350 F   0  0  0  0  0  0  0  0  0  0  0  0
    6.3250    4.5940   18.8950 C   0  0  0  0  0  0  0  0  0  0  0  0
    4.9300    4.5290   18.8330 C   0  0  0  0  0  0  0  0  0  0  0  0
    4.3990    7.2040   16.7660 H   0  0  0  0  0  0  0  0  0  0  0  0
    6.8700    7.2440   16.8420 H   0  0  0  0  0  0  0  0  0  0  0  0
    6.8920    3.9050   19.5230 H   0  0  0  0  0  0  0  0  0  0  0  0
    4.2610    3.4650   19.6260 C   0  0  0  0  0  0  0  0  0  0  0  0
    4.8890    2.2530   19.6380 N   0  0  0  0  0  0  0  0  0  0  0  0
    3.2170    3.6660   20.2330 O   0  0  0  0  0  0  0  0  0  0  0  0
    5.7170    2.0580   19.0990 H   0  0  0  0  0  0  0  0  0  0  0  0
    4.4590    1.5040   20.1640 H   0  0  0  0  0  0  0  0  0  0  0  0
  1  6  1  0  0  0  0
  1 24  1  0  0  0  0
  2  1  2  0  0  0  0
  3  4  2  0  0  0  0
  3  2  1  0  0  0  0
  4  5  1  0  0  0  0
  5  9  1  0  0  0  0
  5  6  2  0  0  0  0
  6  7  1  0  0  0  0
  7 13  1  0  0  0  0
  7 14  1  0  0  0  0
  8  7  1  0  0  0  0
  8 16  1  0  0  0  0
  9 17  1  1  0  0  0
  9  8  1  0  0  0  0
 10  2  1  0  0  0  0
 11  3  1  0  0  0  0
 12  4  1  0  0  0  0
 15  8  1  0  0  0  0
 18 26  1  0  0  0  0
 18 19  1  0  0  0  0
 20 19  2  0  0  0  0
 20 25  1  0  0  0  0
 21 20  1  0  0  0  0
 22 21  1  0  0  0  0
 23 24  1  0  0  0  0
 23 21  2  0  0  0  0
 24 18  2  0  0  0  0
 26 28  1  0  0  0  0
 27 26  1  0  0  0  0
 29 26  1  0  0  0  0
 30 31  1  0  0  0  0
 30  9  1  0  0  0  0
 31 32  2  0  0  0  0
 33 36  1  0  0  0  0
 33 31  1  0  0  0  0
 34 30  1  0  0  0  0
 35 33  1  0  0  0  0
 36 39  1  0  0  0  0
 36 37  1  0  0  0  0
 38 36  1  0  0  0  0
 39 45  1  0  0  0  0
 40 41  1  0  0  0  0
 40 39  2  0  0  0  0
 41 42  2  0  0  0  0
 42 43  1  0  0  0  0
 42 44  1  0  0  0  0
 44 48  1  0  0  0  0
 45 44  2  0  0  0  0
 45 49  1  0  0  0  0
 46 40  1  0  0  0  0
 47 41  1  0  0  0  0
 49 50  1  0  0  0  0
 49 51  2  0  0  0  0
 50 53  1  0  0  0  0
 52 50  1  0  0  0  0
M  END
>  <MODEL>
23

>  <REMARK>
 VINA RESULT:    -7.490      1.888      2.746
 INTER + INTRA:          -9.738
 INTER:                  -9.252
 INTRA:                  -0.485
 UNBOUND:                 0.161
  Name = 
  6 active torsions:
  status: ('A' for Active; 'I' for Inactive)
    1  A    between atoms: C_1  and  C_2
    2  A    between atoms: C_8  and  C_9
    3  A    between atoms: C_17  and  N_18
    4  A    between atoms: N_21  and  C_22
    5  A    between atoms: C_22  and  C_23
    6  A    between atoms: C_29  and  C_30
                            x       y       z     vdW  Elec       q    Type
                         _______ _______ _______ _____ _____    ______ ____

>  <TORSDO>
F 6

$$$$
=
 OpenBabel07192307433D

 53 56  0  0  1  0  0  0  0  0999 V2000
   -1.3150   12.4030   20.9520 C   0  0  0  0  0  0  0  0  0  0  0  0
   -0.5700   12.8680   19.8500 C   0  0  0  0  0  0  0  0  0  0  0  0
    0.7130   12.3700   19.5660 C   0  0  0  0  0  0  0  0  0  0  0  0
    1.2910   11.3960   20.3760 C   0  0  0  0  0  0  0  0  0  0  0  0
    0.5640   10.9200   21.4560 C   0  0  0  0  0  0  0  0  0  0  0  0
   -0.7180   11.4190   21.7420 C   0  0  0  0  0  0  0  0  0  0  0  0
   -1.2450   10.8010   23.0100 C   0  0  0  0  0  0  0  0  0  0  0  0
   -0.3440    9.5680   23.1510 C   0  0  0  0  0  0  0  0  0  0  0  0
    1.0040    9.9430   22.5080 C   0  0  1  0  0  0  0  0  0  0  0  0
   -0.9720   13.6540   19.2110 H   0  0  0  0  0  0  0  0  0  0  0  0
    1.2650   12.7670   18.7190 H   0  0  0  0  0  0  0  0  0  0  0  0
    2.2960   11.0320   20.1750 H   0  0  0  0  0  0  0  0  0  0  0  0
   -2.3010   10.5090   22.9370 H   0  0  0  0  0  0  0  0  0  0  0  0
   -1.1020   11.4900   23.8500 H   0  0  0  0  0  0  0  0  0  0  0  0
   -0.8020    8.7240   22.6150 H   0  0  0  0  0  0  0  0  0  0  0  0
   -0.2340    9.2610   24.1960 H   0  0  0  0  0  0  0  0  0  0  0  0
    1.6460   10.4530   23.2370 H   0  0  0  0  0  0  0  0  0  0  0  0
   -3.7810   12.7600   20.4640 C   0  0  0  0  0  0  0  0  0  0  0  0
   -4.9790   13.3260   20.7800 N   0  0  0  0  0  0  0  0  0  0  0  0
   -5.0010   14.0680   21.9170 C   0  0  0  0  0  0  0  0  0  0  0  0
   -3.8840   14.2390   22.7210 C   0  0  0  0  0  0  0  0  0  0  0  0
   -4.0160   15.2670   24.3080 Br  0  0  0  0  0  0  0  0  0  0  0  0
   -2.6900   13.6880   22.4100 N   0  0  0  0  0  0  0  0  0  0  0  0
   -2.6380   12.9560   21.2640 C   0  0  0  0  0  0  0  0  0  0  0  0
   -5.9570   14.5170   22.1640 H   0  0  0  0  0  0  0  0  0  0  0  0
   -3.7630   11.9080   19.2270 C   0  0  0  0  0  0  0  0  0  0  0  0
   -4.3180   10.9800   19.3910 H   0  0  0  0  0  0  0  0  0  0  0  0
   -4.1920   12.4520   18.3810 H   0  0  0  0  0  0  0  0  0  0  0  0
   -2.7350   11.6350   18.9550 H   0  0  0  0  0  0  0  0  0  0  0  0
    1.6930    8.8000   21.9540 N   0  0  0  0  0  0  0  0  0  0  0  0
    0.9950    7.8650   21.2400 C   0  0  0  0  0  0  0  0  0  0  0  0
   -0.2130    7.9040   21.0630 O   0  0  0  0  0  0  0  0  0  0  0  0
    1.8080    6.8590   20.7970 N   0  0  0  0  0  0  0  0  0  0  0  0
    2.6460    8.9470   21.6640 H   0  0  0  0  0  0  0  0  0  0  0  0
    2.6930    6.7730   21.2670 H   0  0  0  0  0  0  0  0  0  0  0  0
    1.2850    5.6740   20.1460 C   0  0  0  0  0  0  0  0  0  0  0  0
    0.3570    5.3440   20.6330 H   0  0  0  0  0  0  0  0  0  0  0  0
    1.0220    5.9890   19.1310 H   0  0  0  0  0  0  0  0  0  0  0  0
    2.2980    4.5510   20.1690 C   0  0  0  0  0  0  0  0  0  0  0  0
    2.1770    3.5550   21.1640 C   0  0  0  0  0  0  0  0  0  0  0  0
    3.1060    2.5230   21.2660 C   0  0  0  0  0  0  0  0  0  0  0  0
    4.1520    2.4580   20.3620 C   0  0  0  0  0  0  0  0  0  0  0  0
    5.0260    1.4530   20.4480 F   0  0  0  0  0  0  0  0  0  0  0  0
    4.2960    3.4120   19.3630 C   0  0  0  0  0  0  0  0  0  0  0  0
    3.3830    4.4670   19.2710 C   0  0  0  0  0  0  0  0  0  0  0  0
    1.3380    3.5790   21.8680 H   0  0  0  0  0  0  0  0  0  0  0  0
    3.0140    1.7700   22.0450 H   0  0  0  0  0  0  0  0  0  0  0  0
    5.1110    3.3100   18.6440 H   0  0  0  0  0  0  0  0  0  0  0  0
    3.5890    5.4550   18.1810 C   0  0  0  0  0  0  0  0  0  0  0  0
    4.0010    4.9400   16.9860 N   0  0  0  0  0  0  0  0  0  0  0  0
    3.3970    6.6530   18.3460 O   0  0  0  0  0  0  0  0  0  0  0  0
    4.2170    3.9650   16.8530 H   0  0  0  0  0  0  0  0  0  0  0  0
    4.1560    5.5840   16.2230 H   0  0  0  0  0  0  0  0  0  0  0  0
  1 24  1  0  0  0  0
  1  6  1  0  0  0  0
  2  1  2  0  0  0  0
  3  2  1  0  0  0  0
  3  4  2  0  0  0  0
  4  5  1  0  0  0  0
  5  6  2  0  0  0  0
  5  9  1  0  0  0  0
  6  7  1  0  0  0  0
  7  8  1  0  0  0  0
  7 14  1  0  0  0  0
  8 16  1  0  0  0  0
  9  8  1  0  0  0  0
  9 17  1  1  0  0  0
 10  2  1  0  0  0  0
 11  3  1  0  0  0  0
 12  4  1  0  0  0  0
 13  7  1  0  0  0  0
 15  8  1  0  0  0  0
 18 19  2  0  0  0  0
 18 24  1  0  0  0  0
 19 20  1  0  0  0  0
 20 25  1  0  0  0  0
 20 21  2  0  0  0  0
 21 22  1  0  0  0  0
 23 21  1  0  0  0  0
 24 23  2  0  0  0  0
 26 27  1  0  0  0  0
 26 18  1  0  0  0  0
 28 26  1  0  0  0  0
 29 26  1  0  0  0  0
 30  9  1  0  0  0  0
 31 30  1  0  0  0  0
 32 31  2  0  0  0  0
 33 31  1  0  0  0  0
 33 35  1  0  0  0  0
 34 30  1  0  0  0  0
 36 39  1  0  0  0  0
 36 37  1  0  0  0  0
 36 33  1  0  0  0  0
 38 36  1  0  0  0  0
 39 40  1  0  0  0  0
 40 41  2  0  0  0  0
 40 46  1  0  0  0  0
 41 47  1  0  0  0  0
 42 43  1  0  0  0  0
 42 41  1  0  0  0  0
 44 42  2  0  0  0  0
 45 44  1  0  0  0  0
 45 39  2  0  0  0  0
 48 44  1  0  0  0  0
 49 51  2  0  0  0  0
 49 45  1  0  0  0  0
 50 49  1  0  0  0  0
 52 50  1  0  0  0  0
 53 50  1  0  0  0  0
M  END
>  <MODEL>
24

>  <REMARK>
 VINA RESULT:    -7.379      2.512      3.728
 INTER + INTRA:          -9.591
 INTER:                  -9.790
 INTRA:                   0.199
 UNBOUND:                 0.161
  Name = 
  6 active torsions:
  status: ('A' for Active; 'I' for Inactive)
    1  A    between atoms: C_1  and  C_2
    2  A    between atoms: C_8  and  C_9
    3  A    between atoms: C_17  and  N_18
    4  A    between atoms: N_21  and  C_22
    5  A    between atoms: C_22  and  C_23
    6  A    between atoms: C_29  and  C_30
                            x       y       z     vdW  Elec       q    Type
                         _______ _______ _______ _____ _____    ______ ____

>  <TORSDO>
F 6

$$$$
=
 OpenBabel07192307433D

 53 56  0  0  1  0  0  0  0  0999 V2000
   -0.0490   10.9470   21.5560 C   0  0  0  0  0  0  0  0  0  0  0  0
    0.3570   10.0530   22.5670 C   0  0  0  0  0  0  0  0  0  0  0  0
    1.0380    8.8610   22.2660 C   0  0  0  0  0  0  0  0  0  0  0  0
    1.3300    8.5250   20.9470 C   0  0  0  0  0  0  0  0  0  0  0  0
    0.9470    9.4000   19.9430 C   0  0  0  0  0  0  0  0  0  0  0  0
    0.2650   10.5920   20.2420 C   0  0  0  0  0  0  0  0  0  0  0  0
   -0.1090   11.3090   18.9730 C   0  0  0  0  0  0  0  0  0  0  0  0
    0.8340   10.6530   17.9570 C   0  0  0  0  0  0  0  0  0  0  0  0
    1.0760    9.2170   18.4580 C   0  0  1  0  0  0  0  0  0  0  0  0
    0.1190   10.2630   23.6090 H   0  0  0  0  0  0  0  0  0  0  0  0
    1.3180    8.1870   23.0710 H   0  0  0  0  0  0  0  0  0  0  0  0
    1.8290    7.5880   20.7100 H   0  0  0  0  0  0  0  0  0  0  0  0
    0.0650   12.3920   19.0270 H   0  0  0  0  0  0  0  0  0  0  0  0
   -1.1560   11.1080   18.7230 H   0  0  0  0  0  0  0  0  0  0  0  0
    1.7800   11.2130   17.9300 H   0  0  0  0  0  0  0  0  0  0  0  0
    0.4210   10.6750   16.9440 H   0  0  0  0  0  0  0  0  0  0  0  0
    0.2820    8.5490   18.1000 H   0  0  0  0  0  0  0  0  0  0  0  0
   -0.2320   13.4620   21.8480 C   0  0  0  0  0  0  0  0  0  0  0  0
   -0.9580   14.5630   22.1890 N   0  0  0  0  0  0  0  0  0  0  0  0
   -2.2510   14.3350   22.5350 C   0  0  0  0  0  0  0  0  0  0  0  0
   -2.8130   13.0670   22.5350 C   0  0  0  0  0  0  0  0  0  0  0  0
   -4.6360   12.8480   23.0030 Br  0  0  0  0  0  0  0  0  0  0  0  0
   -2.0980   11.9690   22.2070 N   0  0  0  0  0  0  0  0  0  0  0  0
   -0.7930   12.1710   21.8750 C   0  0  0  0  0  0  0  0  0  0  0  0
   -2.8240   15.2150   22.8060 H   0  0  0  0  0  0  0  0  0  0  0  0
    1.1880   13.7150   21.4280 C   0  0  0  0  0  0  0  0  0  0  0  0
    1.6900   14.3730   22.1430 H   0  0  0  0  0  0  0  0  0  0  0  0
    1.7360   12.7720   21.3450 H   0  0  0  0  0  0  0  0  0  0  0  0
    1.2240   14.2040   20.4450 H   0  0  0  0  0  0  0  0  0  0  0  0
    2.3680    8.7030   18.0700 N   0  0  0  0  0  0  0  0  0  0  0  0
    2.5020    7.3840   17.7280 C   0  0  0  0  0  0  0  0  0  0  0  0
    1.5880    6.5750   17.7650 O   0  0  0  0  0  0  0  0  0  0  0  0
    3.7910    7.0800   17.3920 N   0  0  0  0  0  0  0  0  0  0  0  0
    2.9800    9.3410   17.5890 H   0  0  0  0  0  0  0  0  0  0  0  0
    4.4910    7.7310   17.7040 H   0  0  0  0  0  0  0  0  0  0  0  0
    4.2210    5.7180   17.1360 C   0  0  0  0  0  0  0  0  0  0  0  0
    3.4750    5.0020   17.5090 H   0  0  0  0  0  0  0  0  0  0  0  0
    4.2450    5.6190   16.0460 H   0  0  0  0  0  0  0  0  0  0  0  0
    5.5590    5.4410   17.7830 C   0  0  0  0  0  0  0  0  0  0  0  0
    5.7150    5.7300   19.1570 C   0  0  0  0  0  0  0  0  0  0  0  0
    6.9370    5.5410   19.7980 C   0  0  0  0  0  0  0  0  0  0  0  0
    8.0100    5.0390   19.0810 C   0  0  0  0  0  0  0  0  0  0  0  0
    9.1720    4.8360   19.7040 F   0  0  0  0  0  0  0  0  0  0  0  0
    7.8900    4.7320   17.7320 C   0  0  0  0  0  0  0  0  0  0  0  0
    6.6740    4.9450   17.0760 C   0  0  0  0  0  0  0  0  0  0  0  0
    4.8670    6.1010   19.7420 H   0  0  0  0  0  0  0  0  0  0  0  0
    7.0530    5.7810   20.8520 H   0  0  0  0  0  0  0  0  0  0  0  0
    8.7450    4.3030   17.2060 H   0  0  0  0  0  0  0  0  0  0  0  0
    6.6070    4.5960   15.6330 C   0  0  0  0  0  0  0  0  0  0  0  0
    7.1360    5.5190   14.7760 N   0  0  0  0  0  0  0  0  0  0  0  0
    6.1150    3.5470   15.2400 O   0  0  0  0  0  0  0  0  0  0  0  0
    7.4930    6.4100   15.0810 H   0  0  0  0  0  0  0  0  0  0  0  0
    7.1040    5.3170   13.7870 H   0  0  0  0  0  0  0  0  0  0  0  0
  1 24  1  0  0  0  0
  1  2  1  0  0  0  0
  2 10  1  0  0  0  0
  3  2  2  0  0  0  0
  3 11  1  0  0  0  0
  4  3  1  0  0  0  0
  5  6  1  0  0  0  0
  5  4  2  0  0  0  0
  6  1  2  0  0  0  0
  7 13  1  0  0  0  0
  7  6  1  0  0  0  0
  8  9  1  0  0  0  0
  8  7  1  0  0  0  0
  9 17  1  6  0  0  0
  9  5  1  0  0  0  0
 12  4  1  0  0  0  0
 14  7  1  0  0  0  0
 15  8  1  0  0  0  0
 16  8  1  0  0  0  0
 18 24  2  0  0  0  0
 18 19  1  0  0  0  0
 19 20  2  0  0  0  0
 20 25  1  0  0  0  0
 21 20  1  0  0  0  0
 21 22  1  0  0  0  0
 23 21  2  0  0  0  0
 24 23  1  0  0  0  0
 26 18  1  0  0  0  0
 26 27  1  0  0  0  0
 28 26  1  0  0  0  0
 29 26  1  0  0  0  0
 30  9  1  0  0  0  0
 31 32  2  0  0  0  0
 31 30  1  0  0  0  0
 33 35  1  0  0  0  0
 33 31  1  0  0  0  0
 34 30  1  0  0  0  0
 36 33  1  0  0  0  0
 36 37  1  0  0  0  0
 36 39  1  0  0  0  0
 38 36  1  0  0  0  0
 39 40  1  0  0  0  0
 40 46  1  0  0  0  0
 40 41  2  0  0  0  0
 41 47  1  0  0  0  0
 42 43  1  0  0  0  0
 42 41  1  0  0  0  0
 44 42  2  0  0  0  0
 45 44  1  0  0  0  0
 45 39  2  0  0  0  0
 48 44  1  0  0  0  0
 49 45  1  0  0  0  0
 50 52  1  0  0  0  0
 50 49  1  0  0  0  0
 51 49  2  0  0  0  0
 53 50  1  0  0  0  0
M  END
>  <MODEL>
25

>  <REMARK>
 VINA RESULT:    -7.351      2.142      2.550
 INTER + INTRA:          -9.553
 INTER:                  -8.574
 INTRA:                  -0.979
 UNBOUND:                 0.161
  Name = 
  6 active torsions:
  status: ('A' for Active; 'I' for Inactive)
    1  A    between atoms: C_1  and  C_2
    2  A    between atoms: C_8  and  C_9
    3  A    between atoms: C_17  and  N_18
    4  A    between atoms: N_21  and  C_22
    5  A    between atoms: C_22  and  C_23
    6  A    between atoms: C_29  and  C_30
                            x       y       z     vdW  Elec       q    Type
                         _______ _______ _______ _____ _____    ______ ____

>  <TORSDO>
F 6

$$$$
=
 OpenBabel07192307433D

 53 56  0  0  1  0  0  0  0  0999 V2000
    0.4780   10.0170   18.9770 C   0  0  0  0  0  0  0  0  0  0  0  0
    1.1510    9.8750   17.7470 C   0  0  0  0  0  0  0  0  0  0  0  0
    2.0750    8.8390   17.5280 C   0  0  0  0  0  0  0  0  0  0  0  0
    2.3580    7.9180   18.5330 C   0  0  0  0  0  0  0  0  0  0  0  0
    1.6940    8.0380   19.7430 C   0  0  0  0  0  0  0  0  0  0  0  0
    0.7700    9.0730   19.9640 C   0  0  0  0  0  0  0  0  0  0  0  0
    0.2650    9.0270   21.3810 C   0  0  0  0  0  0  0  0  0  0  0  0
    0.6290    7.5950   21.7920 C   0  0  0  0  0  0  0  0  0  0  0  0
    1.8910    7.2240   20.9900 C   0  0  1  0  0  0  0  0  0  0  0  0
    0.9820   10.5940   16.9460 H   0  0  0  0  0  0  0  0  0  0  0  0
    2.5890    8.7740   16.5730 H   0  0  0  0  0  0  0  0  0  0  0  0
    3.0960    7.1350   18.3760 H   0  0  0  0  0  0  0  0  0  0  0  0
   -0.8180    9.1920   21.4540 H   0  0  0  0  0  0  0  0  0  0  0  0
    0.7990    9.7600   21.9940 H   0  0  0  0  0  0  0  0  0  0  0  0
   -0.2010    6.9230   21.5320 H   0  0  0  0  0  0  0  0  0  0  0  0
    0.7840    7.5080   22.8720 H   0  0  0  0  0  0  0  0  0  0  0  0
    2.7910    7.5670   21.5150 H   0  0  0  0  0  0  0  0  0  0  0  0
   -0.1070   12.3310   19.8420 C   0  0  0  0  0  0  0  0  0  0  0  0
   -1.0240   13.3130   20.0660 N   0  0  0  0  0  0  0  0  0  0  0  0
   -2.2830   13.0580   19.6240 C   0  0  0  0  0  0  0  0  0  0  0  0
   -2.6240   11.8800   18.9760 C   0  0  0  0  0  0  0  0  0  0  0  0
   -4.4000   11.6250   18.3670 Br  0  0  0  0  0  0  0  0  0  0  0  0
   -1.7220   10.8980   18.7580 N   0  0  0  0  0  0  0  0  0  0  0  0
   -0.4580   11.1230   19.2090 C   0  0  0  0  0  0  0  0  0  0  0  0
   -3.0090   13.8420   19.8060 H   0  0  0  0  0  0  0  0  0  0  0  0
    1.2950   12.6260   20.2950 C   0  0  0  0  0  0  0  0  0  0  0  0
    1.3310   12.7470   21.3810 H   0  0  0  0  0  0  0  0  0  0  0  0
    1.9720   11.8220   19.9900 H   0  0  0  0  0  0  0  0  0  0  0  0
    1.6640   13.5560   19.8450 H   0  0  0  0  0  0  0  0  0  0  0  0
    1.9830    5.8080   20.7220 N   0  0  0  0  0  0  0  0  0  0  0  0
    3.1860    5.2580   20.3700 C   0  0  0  0  0  0  0  0  0  0  0  0
    4.2120    5.9020   20.2230 O   0  0  0  0  0  0  0  0  0  0  0  0
    3.0810    3.9120   20.1550 N   0  0  0  0  0  0  0  0  0  0  0  0
    1.3690    5.2100   21.2510 H   0  0  0  0  0  0  0  0  0  0  0  0
    2.1510    3.5660   19.9950 H   0  0  0  0  0  0  0  0  0  0  0  0
    4.1800    3.1270   19.6280 C   0  0  0  0  0  0  0  0  0  0  0  0
    5.0320    3.1420   20.3230 H   0  0  0  0  0  0  0  0  0  0  0  0
    3.8130    2.0960   19.5910 H   0  0  0  0  0  0  0  0  0  0  0  0
    4.6180    3.6450   18.2770 C   0  0  0  0  0  0  0  0  0  0  0  0
    5.9670    4.0280   18.1070 C   0  0  0  0  0  0  0  0  0  0  0  0
    6.4190    4.5570   16.9010 C   0  0  0  0  0  0  0  0  0  0  0  0
    5.5360    4.6860   15.8420 C   0  0  0  0  0  0  0  0  0  0  0  0
    5.9780    5.1710   14.6800 F   0  0  0  0  0  0  0  0  0  0  0  0
    4.2050    4.3080   15.9690 C   0  0  0  0  0  0  0  0  0  0  0  0
    3.7390    3.8020   17.1850 C   0  0  0  0  0  0  0  0  0  0  0  0
    6.6820    3.9050   18.9270 H   0  0  0  0  0  0  0  0  0  0  0  0
    7.4550    4.8650   16.7840 H   0  0  0  0  0  0  0  0  0  0  0  0
    3.5450    4.3890   15.1030 H   0  0  0  0  0  0  0  0  0  0  0  0
    2.3060    3.4140   17.2580 C   0  0  0  0  0  0  0  0  0  0  0  0
    2.0520    2.0740   17.1940 N   0  0  0  0  0  0  0  0  0  0  0  0
    1.4130    4.2440   17.3730 O   0  0  0  0  0  0  0  0  0  0  0  0
    2.7710    1.3850   17.0440 H   0  0  0  0  0  0  0  0  0  0  0  0
    1.0870    1.7750   17.2360 H   0  0  0  0  0  0  0  0  0  0  0  0
  1 24  1  0  0  0  0
  1  6  1  0  0  0  0
  2  1  2  0  0  0  0
  3  2  1  0  0  0  0
  3  4  2  0  0  0  0
  4  5  1  0  0  0  0
  5  6  2  0  0  0  0
  5  9  1  0  0  0  0
  6  7  1  0  0  0  0
  7 13  1  0  0  0  0
  7  8  1  0  0  0  0
  7 14  1  0  0  0  0
  8 16  1  0  0  0  0
  9 17  1  1  0  0  0
  9  8  1  0  0  0  0
 10  2  1  0  0  0  0
 11  3  1  0  0  0  0
 12  4  1  0  0  0  0
 15  8  1  0  0  0  0
 18 19  1  0  0  0  0
 18 26  1  0  0  0  0
 20 25  1  0  0  0  0
 20 19  2  0  0  0  0
 21 20  1  0  0  0  0
 22 21  1  0  0  0  0
 23 21  2  0  0  0  0
 23 24  1  0  0  0  0
 24 18  2  0  0  0  0
 26 27  1  0  0  0  0
 28 26  1  0  0  0  0
 29 26  1  0  0  0  0
 30  9  1  0  0  0  0
 30 34  1  0  0  0  0
 31 30  1  0  0  0  0
 32 31  2  0  0  0  0
 33 31  1  0  0  0  0
 35 33  1  0  0  0  0
 36 33  1  0  0  0  0
 36 37  1  0  0  0  0
 38 36  1  0  0  0  0
 39 36  1  0  0  0  0
 40 39  1  0  0  0  0
 40 46  1  0  0  0  0
 41 40  2  0  0  0  0
 42 44  2  0  0  0  0
 42 41  1  0  0  0  0
 43 42  1  0  0  0  0
 44 45  1  0  0  0  0
 45 49  1  0  0  0  0
 45 39  2  0  0  0  0
 47 41  1  0  0  0  0
 48 44  1  0  0  0  0
 49 51  2  0  0  0  0
 50 53  1  0  0  0  0
 50 49  1  0  0  0  0
 52 50  1  0  0  0  0
M  END
>  <MODEL>
26

>  <REMARK>
 VINA RESULT:    -7.270      1.647      2.541
 INTER + INTRA:          -9.446
 INTER:                  -8.894
 INTRA:                  -0.553
 UNBOUND:                 0.161
  Name = 
  6 active torsions:
  status: ('A' for Active; 'I' for Inactive)
    1  A    between atoms: C_1  and  C_2
    2  A    between atoms: C_8  and  C_9
    3  A    between atoms: C_17  and  N_18
    4  A    between atoms: N_21  and  C_22
    5  A    between atoms: C_22  and  C_23
    6  A    between atoms: C_29  and  C_30
                            x       y       z     vdW  Elec       q    Type
                         _______ _______ _______ _____ _____    ______ ____

>  <TORSDO>
F 6

$$$$
=
 OpenBabel07192307433D

 53 56  0  0  1  0  0  0  0  0999 V2000
   -2.0520   11.9990   19.8870 C   0  0  0  0  0  0  0  0  0  0  0  0
   -2.8620   11.6580   18.7860 C   0  0  0  0  0  0  0  0  0  0  0  0
   -2.4580   10.6960   17.8440 C   0  0  0  0  0  0  0  0  0  0  0  0
   -1.2310   10.0500   17.9720 C   0  0  0  0  0  0  0  0  0  0  0  0
   -0.4300   10.3670   19.0580 C   0  0  0  0  0  0  0  0  0  0  0  0
   -0.8320   11.3290   19.9990 C   0  0  0  0  0  0  0  0  0  0  0  0
    0.2540   11.5450   21.0190 C   0  0  0  0  0  0  0  0  0  0  0  0
    1.1040   10.2820   20.8370 C   0  0  0  0  0  0  0  0  0  0  0  0
    0.9550    9.8700   19.3610 C   0  0  1  0  0  0  0  0  0  0  0  0
   -3.8150   12.1640   18.6310 H   0  0  0  0  0  0  0  0  0  0  0  0
   -3.1010   10.4740   16.9970 H   0  0  0  0  0  0  0  0  0  0  0  0
   -0.9030    9.3290   17.2280 H   0  0  0  0  0  0  0  0  0  0  0  0
   -0.1310   11.6140   22.0450 H   0  0  0  0  0  0  0  0  0  0  0  0
    0.8280   12.4440   20.7710 H   0  0  0  0  0  0  0  0  0  0  0  0
    0.7190    9.4910   21.4960 H   0  0  0  0  0  0  0  0  0  0  0  0
    2.1490   10.4500   21.1170 H   0  0  0  0  0  0  0  0  0  0  0  0
    1.6820   10.4080   18.7390 H   0  0  0  0  0  0  0  0  0  0  0  0
   -1.9860   14.3560   20.8300 C   0  0  0  0  0  0  0  0  0  0  0  0
   -2.3750   15.2670   21.7650 N   0  0  0  0  0  0  0  0  0  0  0  0
   -3.2610   14.8210   22.6920 C   0  0  0  0  0  0  0  0  0  0  0  0
   -3.7560   13.5250   22.6910 C   0  0  0  0  0  0  0  0  0  0  0  0
   -5.0150   13.0000   24.0070 Br  0  0  0  0  0  0  0  0  0  0  0  0
   -3.3690   12.6130   21.7730 N   0  0  0  0  0  0  0  0  0  0  0  0
   -2.4650   13.0320   20.8450 C   0  0  0  0  0  0  0  0  0  0  0  0
   -3.5670   15.5490   23.4350 H   0  0  0  0  0  0  0  0  0  0  0  0
   -1.0340   14.8570   19.7800 C   0  0  0  0  0  0  0  0  0  0  0  0
   -1.5580   15.4830   19.0530 H   0  0  0  0  0  0  0  0  0  0  0  0
   -0.2220   15.4270   20.2420 H   0  0  0  0  0  0  0  0  0  0  0  0
   -0.5800   14.0210   19.2330 H   0  0  0  0  0  0  0  0  0  0  0  0
    1.0910    8.4460   19.1640 N   0  0  0  0  0  0  0  0  0  0  0  0
    2.2240    7.9440   18.5830 C   0  0  0  0  0  0  0  0  0  0  0  0
    3.1410    8.6360   18.1690 O   0  0  0  0  0  0  0  0  0  0  0  0
    2.1750    6.5820   18.4780 N   0  0  0  0  0  0  0  0  0  0  0  0
    0.6560    7.8540   19.8520 H   0  0  0  0  0  0  0  0  0  0  0  0
    1.2610    6.1700   18.5520 H   0  0  0  0  0  0  0  0  0  0  0  0
    3.1870    5.8270   17.7640 C   0  0  0  0  0  0  0  0  0  0  0  0
    2.8040    5.4970   16.7880 H   0  0  0  0  0  0  0  0  0  0  0  0
    3.9980    6.5350   17.5690 H   0  0  0  0  0  0  0  0  0  0  0  0
    3.6330    4.6250   18.5670 C   0  0  0  0  0  0  0  0  0  0  0  0
    4.9980    4.5180   18.9150 C   0  0  0  0  0  0  0  0  0  0  0  0
    5.4780    3.4120   19.6120 C   0  0  0  0  0  0  0  0  0  0  0  0
    4.5970    2.4130   19.9920 C   0  0  0  0  0  0  0  0  0  0  0  0
    5.0570    1.3670   20.6820 F   0  0  0  0  0  0  0  0  0  0  0  0
    3.2470    2.4920   19.6780 C   0  0  0  0  0  0  0  0  0  0  0  0
    2.7630    3.5860   18.9550 C   0  0  0  0  0  0  0  0  0  0  0  0
    5.7000    5.3140   18.6450 H   0  0  0  0  0  0  0  0  0  0  0  0
    6.5330    3.3290   19.8620 H   0  0  0  0  0  0  0  0  0  0  0  0
    2.5740    1.7050   20.0250 H   0  0  0  0  0  0  0  0  0  0  0  0
    1.3090    3.6130   18.6510 C   0  0  0  0  0  0  0  0  0  0  0  0
    0.4820    3.2620   19.6790 N   0  0  0  0  0  0  0  0  0  0  0  0
    0.8810    3.9360   17.5500 O   0  0  0  0  0  0  0  0  0  0  0  0
    0.8220    2.9410   20.5710 H   0  0  0  0  0  0  0  0  0  0  0  0
   -0.5130    3.2640   19.5070 H   0  0  0  0  0  0  0  0  0  0  0  0
  1  6  1  0  0  0  0
  1 24  1  0  0  0  0
  2  1  2  0  0  0  0
  3  4  2  0  0  0  0
  3  2  1  0  0  0  0
  4  5  1  0  0  0  0
  5  9  1  0  0  0  0
  5  6  2  0  0  0  0
  6  7  1  0  0  0  0
  7 13  1  0  0  0  0
  8  7  1  0  0  0  0
  8 16  1  0  0  0  0
  8 15  1  0  0  0  0
  9 17  1  6  0  0  0
  9  8  1  0  0  0  0
 10  2  1  0  0  0  0
 11  3  1  0  0  0  0
 12  4  1  0  0  0  0
 14  7  1  0  0  0  0
 18 24  2  0  0  0  0
 18 19  1  0  0  0  0
 19 20  2  0  0  0  0
 20 25  1  0  0  0  0
 21 20  1  0  0  0  0
 21 22  1  0  0  0  0
 23 21  2  0  0  0  0
 24 23  1  0  0  0  0
 26 28  1  0  0  0  0
 26 18  1  0  0  0  0
 27 26  1  0  0  0  0
 29 26  1  0  0  0  0
 30  9  1  0  0  0  0
 30 34  1  0  0  0  0
 31 30  1  0  0  0  0
 32 31  2  0  0  0  0
 33 35  1  0  0  0  0
 33 31  1  0  0  0  0
 36 33  1  0  0  0  0
 36 39  1  0  0  0  0
 37 36  1  0  0  0  0
 38 36  1  0  0  0  0
 39 40  2  0  0  0  0
 39 45  1  0  0  0  0
 40 41  1  0  0  0  0
 41 47  1  0  0  0  0
 41 42  2  0  0  0  0
 42 43  1  0  0  0  0
 44 42  1  0  0  0  0
 44 48  1  0  0  0  0
 45 44  2  0  0  0  0
 46 40  1  0  0  0  0
 49 45  1  0  0  0  0
 49 50  1  0  0  0  0
 50 52  1  0  0  0  0
 51 49  2  0  0  0  0
 53 50  1  0  0  0  0
M  END
>  <MODEL>
27

>  <REMARK>
 VINA RESULT:    -7.177      2.331      3.098
 INTER + INTRA:          -9.324
 INTER:                  -8.708
 INTRA:                  -0.616
 UNBOUND:                 0.161
  Name = 
  6 active torsions:
  status: ('A' for Active; 'I' for Inactive)
    1  A    between atoms: C_1  and  C_2
    2  A    between atoms: C_8  and  C_9
    3  A    between atoms: C_17  and  N_18
    4  A    between atoms: N_21  and  C_22
    5  A    between atoms: C_22  and  C_23
    6  A    between atoms: C_29  and  C_30
                            x       y       z     vdW  Elec       q    Type
                         _______ _______ _______ _____ _____    ______ ____

>  <TORSDO>
F 6

$$$$
=
 OpenBabel07192307433D

 53 56  0  0  1  0  0  0  0  0999 V2000
    4.1400    4.5640   17.0420 C   0  0  0  0  0  0  0  0  0  0  0  0
    3.4950    3.4510   17.6170 C   0  0  0  0  0  0  0  0  0  0  0  0
    2.5450    3.5990   18.6420 C   0  0  0  0  0  0  0  0  0  0  0  0
    2.2140    4.8620   19.1250 C   0  0  0  0  0  0  0  0  0  0  0  0
    2.8310    5.9660   18.5600 C   0  0  0  0  0  0  0  0  0  0  0  0
    3.7820    5.8200   17.5360 C   0  0  0  0  0  0  0  0  0  0  0  0
    4.3580    7.1610   17.1660 C   0  0  0  0  0  0  0  0  0  0  0  0
    3.3080    8.1190   17.7420 C   0  0  0  0  0  0  0  0  0  0  0  0
    2.7000    7.4070   18.9650 C   0  0  1  0  0  0  0  0  0  0  0  0
    3.7500    2.4430   17.2910 H   0  0  0  0  0  0  0  0  0  0  0  0
    2.0830    2.7160   19.0740 H   0  0  0  0  0  0  0  0  0  0  0  0
    1.5020    4.9760   19.9390 H   0  0  0  0  0  0  0  0  0  0  0  0
    4.4610    7.2980   16.0820 H   0  0  0  0  0  0  0  0  0  0  0  0
    5.3280    7.3000   17.6560 H   0  0  0  0  0  0  0  0  0  0  0  0
    2.5350    8.3040   16.9840 H   0  0  0  0  0  0  0  0  0  0  0  0
    3.7410    9.0910   18.0010 H   0  0  0  0  0  0  0  0  0  0  0  0
    3.3110    7.5940   19.8580 H   0  0  0  0  0  0  0  0  0  0  0  0
    6.5430    4.5270   16.2230 C   0  0  0  0  0  0  0  0  0  0  0  0
    7.4460    4.3990   15.2110 N   0  0  0  0  0  0  0  0  0  0  0  0
    6.9260    4.1230   13.9870 C   0  0  0  0  0  0  0  0  0  0  0  0
    5.5650    3.9690   13.7690 C   0  0  0  0  0  0  0  0  0  0  0  0
    4.9330    3.5540   12.0320 Br  0  0  0  0  0  0  0  0  0  0  0  0
    4.6630    4.1030   14.7660 N   0  0  0  0  0  0  0  0  0  0  0  0
    5.1590    4.3990   15.9990 C   0  0  0  0  0  0  0  0  0  0  0  0
    7.6480    4.0230   13.1840 H   0  0  0  0  0  0  0  0  0  0  0  0
    7.1180    4.7940   17.5860 C   0  0  0  0  0  0  0  0  0  0  0  0
    7.0980    3.8870   18.1960 H   0  0  0  0  0  0  0  0  0  0  0  0
    8.1450    5.1620   17.5020 H   0  0  0  0  0  0  0  0  0  0  0  0
    6.5350    5.5610   18.1120 H   0  0  0  0  0  0  0  0  0  0  0  0
    1.3310    7.7950   19.2110 N   0  0  0  0  0  0  0  0  0  0  0  0
    1.0590    9.0100   19.7790 C   0  0  0  0  0  0  0  0  0  0  0  0
    1.9160    9.7990   20.1420 O   0  0  0  0  0  0  0  0  0  0  0  0
   -0.2850    9.2020   19.9360 N   0  0  0  0  0  0  0  0  0  0  0  0
    0.6440    7.4560   18.5580 H   0  0  0  0  0  0  0  0  0  0  0  0
   -0.8540    8.3730   19.9010 H   0  0  0  0  0  0  0  0  0  0  0  0
   -0.8230   10.3440   20.6500 C   0  0  0  0  0  0  0  0  0  0  0  0
   -1.9210   10.3040   20.6690 H   0  0  0  0  0  0  0  0  0  0  0  0
   -0.4790   10.2330   21.6830 H   0  0  0  0  0  0  0  0  0  0  0  0
   -0.3720   11.6410   20.0150 C   0  0  0  0  0  0  0  0  0  0  0  0
    0.5190   12.4680   20.7340 C   0  0  0  0  0  0  0  0  0  0  0  0
    0.9330   13.6960   20.2230 C   0  0  0  0  0  0  0  0  0  0  0  0
    0.4810   14.1010   18.9790 C   0  0  0  0  0  0  0  0  0  0  0  0
    0.8990   15.2670   18.4810 F   0  0  0  0  0  0  0  0  0  0  0  0
   -0.3860   13.3080   18.2380 C   0  0  0  0  0  0  0  0  0  0  0  0
   -0.8270   12.0870   18.7570 C   0  0  0  0  0  0  0  0  0  0  0  0
    0.9060   12.1470   21.7070 H   0  0  0  0  0  0  0  0  0  0  0  0
    1.6070   14.3330   20.7900 H   0  0  0  0  0  0  0  0  0  0  0  0
   -0.6930   13.6400   17.2450 H   0  0  0  0  0  0  0  0  0  0  0  0
   -1.7530   11.2840   17.9170 C   0  0  0  0  0  0  0  0  0  0  0  0
   -2.9720   11.8490   17.6740 N   0  0  0  0  0  0  0  0  0  0  0  0
   -1.4390   10.1890   17.4690 O   0  0  0  0  0  0  0  0  0  0  0  0
   -3.2640   12.7230   18.0820 H   0  0  0  0  0  0  0  0  0  0  0  0
   -3.6290   11.3280   17.1100 H   0  0  0  0  0  0  0  0  0  0  0  0
  1  6  2  0  0  0  0
  1  2  1  0  0  0  0
  2  3  2  0  0  0  0
  3 11  1  0  0  0  0
  3  4  1  0  0  0  0
  4 12  1  0  0  0  0
  5  9  1  0  0  0  0
  5  4  2  0  0  0  0
  6  5  1  0  0  0  0
  7  6  1  0  0  0  0
  7 14  1  0  0  0  0
  7  8  1  0  0  0  0
  8 16  1  0  0  0  0
  8  9  1  0  0  0  0
  9 30  1  0  0  0  0
  9 17  1  1  0  0  0
 10  2  1  0  0  0  0
 13  7  1  0  0  0  0
 15  8  1  0  0  0  0
 18 26  1  0  0  0  0
 19 18  2  0  0  0  0
 20 19  1  0  0  0  0
 21 20  2  0  0  0  0
 21 23  1  0  0  0  0
 22 21  1  0  0  0  0
 23 24  2  0  0  0  0
 24 18  1  0  0  0  0
 24  1  1  0  0  0  0
 25 20  1  0  0  0  0
 26 29  1  0  0  0  0
 26 27  1  0  0  0  0
 28 26  1  0  0  0  0
 30 31  1  0  0  0  0
 31 33  1  0  0  0  0
 31 32  2  0  0  0  0
 33 36  1  0  0  0  0
 34 30  1  0  0  0  0
 35 33  1  0  0  0  0
 36 37  1  0  0  0  0
 36 38  1  0  0  0  0
 39 36  1  0  0  0  0
 39 40  1  0  0  0  0
 40 46  1  0  0  0  0
 41 40  2  0  0  0  0
 41 47  1  0  0  0  0
 42 41  1  0  0  0  0
 43 42  1  0  0  0  0
 44 45  1  0  0  0  0
 44 42  2  0  0  0  0
 45 39  2  0  0  0  0
 48 44  1  0  0  0  0
 49 45  1  0  0  0  0
 50 49  1  0  0  0  0
 50 52  1  0  0  0  0
 51 49  2  0  0  0  0
 53 50  1  0  0  0  0
M  END
>  <MODEL>
28

>  <REMARK>
 VINA RESULT:    -7.164      4.535      9.903
 INTER + INTRA:          -9.307
 INTER:                  -8.979
 INTRA:                  -0.328
 UNBOUND:                 0.161
  Name = 
  6 active torsions:
  status: ('A' for Active; 'I' for Inactive)
    1  A    between atoms: C_1  and  C_2
    2  A    between atoms: C_8  and  C_9
    3  A    between atoms: C_17  and  N_18
    4  A    between atoms: N_21  and  C_22
    5  A    between atoms: C_22  and  C_23
    6  A    between atoms: C_29  and  C_30
                            x       y       z     vdW  Elec       q    Type
                         _______ _______ _______ _____ _____    ______ ____

>  <TORSDO>
F 6

$$$$
=
 OpenBabel07192307433D

 53 56  0  0  1  0  0  0  0  0999 V2000
    2.6510    7.2220   18.5830 C   0  0  0  0  0  0  0  0  0  0  0  0
    2.5070    7.9870   17.4080 C   0  0  0  0  0  0  0  0  0  0  0  0
    1.7290    9.1570   17.3830 C   0  0  0  0  0  0  0  0  0  0  0  0
    1.0710    9.5960   18.5280 C   0  0  0  0  0  0  0  0  0  0  0  0
    1.2140    8.8600   19.6930 C   0  0  0  0  0  0  0  0  0  0  0  0
    1.9900    7.6890   19.7200 C   0  0  0  0  0  0  0  0  0  0  0  0
    1.9060    7.0410   21.0760 C   0  0  0  0  0  0  0  0  0  0  0  0
    1.3960    8.1990   21.9420 C   0  0  0  0  0  0  0  0  0  0  0  0
    0.5410    9.0850   21.0170 C   0  0  1  0  0  0  0  0  0  0  0  0
    2.9800    7.6600   16.4820 H   0  0  0  0  0  0  0  0  0  0  0  0
    1.6260    9.7100   16.4530 H   0  0  0  0  0  0  0  0  0  0  0  0
    0.4430   10.4840   18.5010 H   0  0  0  0  0  0  0  0  0  0  0  0
    2.8770    6.6790   21.4380 H   0  0  0  0  0  0  0  0  0  0  0  0
    1.1820    6.2190   21.0550 H   0  0  0  0  0  0  0  0  0  0  0  0
    2.2560    8.7660   22.3280 H   0  0  0  0  0  0  0  0  0  0  0  0
    0.8340    7.8430   22.8110 H   0  0  0  0  0  0  0  0  0  0  0  0
   -0.4890    8.7100   20.9740 H   0  0  0  0  0  0  0  0  0  0  0  0
    2.8820    4.7000   18.3950 C   0  0  0  0  0  0  0  0  0  0  0  0
    3.6490    3.5760   18.4490 N   0  0  0  0  0  0  0  0  0  0  0  0
    4.9710    3.7730   18.6840 C   0  0  0  0  0  0  0  0  0  0  0  0
    5.5220    5.0350   18.8510 C   0  0  0  0  0  0  0  0  0  0  0  0
    7.3850    5.2150   19.1450 Br  0  0  0  0  0  0  0  0  0  0  0  0
    4.7670    6.1540   18.8070 N   0  0  0  0  0  0  0  0  0  0  0  0
    3.4350    5.9810   18.5920 C   0  0  0  0  0  0  0  0  0  0  0  0
    5.5770    2.8740   18.7270 H   0  0  0  0  0  0  0  0  0  0  0  0
    1.4250    4.4880   18.0960 C   0  0  0  0  0  0  0  0  0  0  0  0
    1.2450    4.5140   17.0180 H   0  0  0  0  0  0  0  0  0  0  0  0
    1.0860    3.5320   18.5060 H   0  0  0  0  0  0  0  0  0  0  0  0
    0.8130    5.2770   18.5530 H   0  0  0  0  0  0  0  0  0  0  0  0
    0.5460   10.4740   21.4160 N   0  0  0  0  0  0  0  0  0  0  0  0
   -0.3610   10.9210   22.3380 C   0  0  0  0  0  0  0  0  0  0  0  0
   -1.2280   10.2200   22.8360 O   0  0  0  0  0  0  0  0  0  0  0  0
   -0.2070   12.2560   22.5890 N   0  0  0  0  0  0  0  0  0  0  0  0
    1.4410   10.9350   21.4270 H   0  0  0  0  0  0  0  0  0  0  0  0
    0.3090   12.7740   21.9000 H   0  0  0  0  0  0  0  0  0  0  0  0
   -1.1400   12.9980   23.4150 C   0  0  0  0  0  0  0  0  0  0  0  0
   -1.5670   12.3480   24.1920 H   0  0  0  0  0  0  0  0  0  0  0  0
   -0.5390   13.7580   23.9250 H   0  0  0  0  0  0  0  0  0  0  0  0
   -2.2530   13.5890   22.5790 C   0  0  0  0  0  0  0  0  0  0  0  0
   -2.0540   13.7160   21.1860 C   0  0  0  0  0  0  0  0  0  0  0  0
   -3.0220   14.2960   20.3710 C   0  0  0  0  0  0  0  0  0  0  0  0
   -4.2100   14.7330   20.9320 C   0  0  0  0  0  0  0  0  0  0  0  0
   -5.1460   15.2660   20.1430 F   0  0  0  0  0  0  0  0  0  0  0  0
   -4.4460   14.6130   22.2950 C   0  0  0  0  0  0  0  0  0  0  0  0
   -3.4670   14.0570   23.1240 C   0  0  0  0  0  0  0  0  0  0  0  0
   -1.1310   13.3480   20.7250 H   0  0  0  0  0  0  0  0  0  0  0  0
   -2.8550   14.4040   19.3020 H   0  0  0  0  0  0  0  0  0  0  0  0
   -5.4080   14.9340   22.6990 H   0  0  0  0  0  0  0  0  0  0  0  0
   -3.7770   13.9550   24.5740 C   0  0  0  0  0  0  0  0  0  0  0  0
   -4.4520   12.8310   24.9570 N   0  0  0  0  0  0  0  0  0  0  0  0
   -3.4440   14.8210   25.3720 O   0  0  0  0  0  0  0  0  0  0  0  0
   -4.7800   12.1380   24.3030 H   0  0  0  0  0  0  0  0  0  0  0  0
   -4.6840   12.7310   25.9350 H   0  0  0  0  0  0  0  0  0  0  0  0
  1 24  1  0  0  0  0
  1  6  1  0  0  0  0
  2  1  2  0  0  0  0
  3  2  1  0  0  0  0
  3  4  2  0  0  0  0
  4  5  1  0  0  0  0
  5  6  2  0  0  0  0
  5  9  1  0  0  0  0
  6  7  1  0  0  0  0
  7 13  1  0  0  0  0
  7  8  1  0  0  0  0
  8 15  1  0  0  0  0
  8 16  1  0  0  0  0
  9 17  1  6  0  0  0
  9 30  1  0  0  0  0
  9  8  1  0  0  0  0
 10  2  1  0  0  0  0
 11  3  1  0  0  0  0
 12  4  1  0  0  0  0
 14  7  1  0  0  0  0
 18 19  2  0  0  0  0
 18 24  1  0  0  0  0
 19 20  1  0  0  0  0
 20 25  1  0  0  0  0
 20 21  2  0  0  0  0
 21 22  1  0  0  0  0
 23 21  1  0  0  0  0
 24 23  2  0  0  0  0
 26 18  1  0  0  0  0
 26 28  1  0  0  0  0
 26 29  1  0  0  0  0
 27 26  1  0  0  0  0
 30 34  1  0  0  0  0
 30 31  1  0  0  0  0
 31 33  1  0  0  0  0
 31 32  2  0  0  0  0
 33 36  1  0  0  0  0
 35 33  1  0  0  0  0
 36 38  1  0  0  0  0
 36 37  1  0  0  0  0
 39 45  1  0  0  0  0
 39 36  1  0  0  0  0
 40 39  2  0  0  0  0
 41 42  2  0  0  0  0
 41 40  1  0  0  0  0
 42 44  1  0  0  0  0
 43 42  1  0  0  0  0
 44 48  1  0  0  0  0
 44 45  2  0  0  0  0
 45 49  1  0  0  0  0
 46 40  1  0  0  0  0
 47 41  1  0  0  0  0
 49 50  1  0  0  0  0
 49 51  2  0  0  0  0
 50 53  1  0  0  0  0
 52 50  1  0  0  0  0
M  END
>  <MODEL>
29

>  <REMARK>
 VINA RESULT:    -7.124      5.097     10.748
 INTER + INTRA:          -9.254
 INTER:                  -8.248
 INTRA:                  -1.007
 UNBOUND:                 0.161
  Name = 
  6 active torsions:
  status: ('A' for Active; 'I' for Inactive)
    1  A    between atoms: C_1  and  C_2
    2  A    between atoms: C_8  and  C_9
    3  A    between atoms: C_17  and  N_18
    4  A    between atoms: N_21  and  C_22
    5  A    between atoms: C_22  and  C_23
    6  A    between atoms: C_29  and  C_30
                            x       y       z     vdW  Elec       q    Type
                         _______ _______ _______ _____ _____    ______ ____

>  <TORSDO>
F 6

$$$$
=
 OpenBabel07192307433D

 53 56  0  0  1  0  0  0  0  0999 V2000
    1.8970    7.5600   19.8620 C   0  0  0  0  0  0  0  0  0  0  0  0
    1.9550    7.5790   21.2700 C   0  0  0  0  0  0  0  0  0  0  0  0
    1.3430    8.5980   22.0190 C   0  0  0  0  0  0  0  0  0  0  0  0
    0.6580    9.6310   21.3850 C   0  0  0  0  0  0  0  0  0  0  0  0
    0.5820    9.6180   20.0010 C   0  0  0  0  0  0  0  0  0  0  0  0
    1.1940    8.6010   19.2510 C   0  0  0  0  0  0  0  0  0  0  0  0
    1.0370    8.8730   17.7790 C   0  0  0  0  0  0  0  0  0  0  0  0
   -0.1200    9.8800   17.7730 C   0  0  0  0  0  0  0  0  0  0  0  0
   -0.0230   10.6560   19.1000 C   0  0  1  0  0  0  0  0  0  0  0  0
    2.5090    6.8070   21.8040 H   0  0  0  0  0  0  0  0  0  0  0  0
    1.4270    8.5890   23.1030 H   0  0  0  0  0  0  0  0  0  0  0  0
    0.2110   10.4370   21.9610 H   0  0  0  0  0  0  0  0  0  0  0  0
    0.7770    7.9750   17.2030 H   0  0  0  0  0  0  0  0  0  0  0  0
    1.9520    9.3240   17.3800 H   0  0  0  0  0  0  0  0  0  0  0  0
   -1.0730    9.3340   17.7170 H   0  0  0  0  0  0  0  0  0  0  0  0
   -0.0810   10.5420   16.9010 H   0  0  0  0  0  0  0  0  0  0  0  0
    0.6680   11.5020   18.9970 H   0  0  0  0  0  0  0  0  0  0  0  0
    2.2960    5.1370   19.2160 C   0  0  0  0  0  0  0  0  0  0  0  0
    2.9770    4.2020   18.4960 N   0  0  0  0  0  0  0  0  0  0  0  0
    3.9130    4.6830   17.6390 C   0  0  0  0  0  0  0  0  0  0  0  0
    4.1650    6.0390   17.4890 C   0  0  0  0  0  0  0  0  0  0  0  0
    5.4720    6.6190   16.2450 Br  0  0  0  0  0  0  0  0  0  0  0  0
    3.5010    6.9720   18.2050 N   0  0  0  0  0  0  0  0  0  0  0  0
    2.5700    6.5130   19.0860 C   0  0  0  0  0  0  0  0  0  0  0  0
    4.4530    3.9350   17.0690 H   0  0  0  0  0  0  0  0  0  0  0  0
    1.2320    4.6110   20.1370 C   0  0  0  0  0  0  0  0  0  0  0  0
    1.5550    4.6850   21.1800 H   0  0  0  0  0  0  0  0  0  0  0  0
    0.2990    5.1650   19.9990 H   0  0  0  0  0  0  0  0  0  0  0  0
    1.0210    3.5550   19.9290 H   0  0  0  0  0  0  0  0  0  0  0  0
   -1.3080   11.1200   19.5680 N   0  0  0  0  0  0  0  0  0  0  0  0
   -1.5070   12.4540   19.8000 C   0  0  0  0  0  0  0  0  0  0  0  0
   -0.6400   13.3040   19.6750 O   0  0  0  0  0  0  0  0  0  0  0  0
   -2.7770   12.7040   20.2390 N   0  0  0  0  0  0  0  0  0  0  0  0
   -2.1140   10.6090   19.2480 H   0  0  0  0  0  0  0  0  0  0  0  0
   -3.2800   11.9130   20.6010 H   0  0  0  0  0  0  0  0  0  0  0  0
   -3.1910   14.0180   20.6950 C   0  0  0  0  0  0  0  0  0  0  0  0
   -2.7960   14.7990   20.0310 H   0  0  0  0  0  0  0  0  0  0  0  0
   -4.2810   14.0320   20.5970 H   0  0  0  0  0  0  0  0  0  0  0  0
   -2.7240   14.2710   22.1110 C   0  0  0  0  0  0  0  0  0  0  0  0
   -1.5540   15.0380   22.3070 C   0  0  0  0  0  0  0  0  0  0  0  0
   -1.0480   15.2650   23.5840 C   0  0  0  0  0  0  0  0  0  0  0  0
   -1.7170   14.7520   24.6820 C   0  0  0  0  0  0  0  0  0  0  0  0
   -1.2430   14.9920   25.9060 F   0  0  0  0  0  0  0  0  0  0  0  0
   -2.8770   14.0040   24.5280 C   0  0  0  0  0  0  0  0  0  0  0  0
   -3.3760   13.7490   23.2470 C   0  0  0  0  0  0  0  0  0  0  0  0
   -1.0300   15.4740   21.4490 H   0  0  0  0  0  0  0  0  0  0  0  0
   -0.1380   15.8430   23.7250 H   0  0  0  0  0  0  0  0  0  0  0  0
   -3.4010   13.6450   25.4170 H   0  0  0  0  0  0  0  0  0  0  0  0
   -4.6210   12.9430   23.1480 C   0  0  0  0  0  0  0  0  0  0  0  0
   -5.1460   12.5160   24.3340 N   0  0  0  0  0  0  0  0  0  0  0  0
   -5.1440   12.6860   22.0710 O   0  0  0  0  0  0  0  0  0  0  0  0
   -4.6960   12.6730   25.2220 H   0  0  0  0  0  0  0  0  0  0  0  0
   -5.9900   11.9620   24.3040 H   0  0  0  0  0  0  0  0  0  0  0  0
  1  2  1  0  0  0  0
  2 10  1  0  0  0  0
  2  3  2  0  0  0  0
  3 11  1  0  0  0  0
  4 12  1  0  0  0  0
  4  3  1  0  0  0  0
  5  4  2  0  0  0  0
  6  1  2  0  0  0  0
  6  5  1  0  0  0  0
  7  6  1  0  0  0  0
  8  7  1  0  0  0  0
  8  9  1  0  0  0  0
  9 17  1  6  0  0  0
  9 30  1  0  0  0  0
  9  5  1  0  0  0  0
 13  7  1  0  0  0  0
 14  7  1  0  0  0  0
 15  8  1  0  0  0  0
 16  8  1  0  0  0  0
 18 26  1  0  0  0  0
 19 18  2  0  0  0  0
 20 19  1  0  0  0  0
 21 20  2  0  0  0  0
 21 23  1  0  0  0  0
 22 21  1  0  0  0  0
 23 24  2  0  0  0  0
 24 18  1  0  0  0  0
 24  1  1  0  0  0  0
 25 20  1  0  0  0  0
 26 27  1  0  0  0  0
 28 26  1  0  0  0  0
 29 26  1  0  0  0  0
 30 31  1  0  0  0  0
 31 33  1  0  0  0  0
 32 31  2  0  0  0  0
 33 35  1  0  0  0  0
 33 36  1  0  0  0  0
 34 30  1  0  0  0  0
 36 39  1  0  0  0  0
 37 36  1  0  0  0  0
 38 36  1  0  0  0  0
 39 40  2  0  0  0  0
 39 45  1  0  0  0  0
 40 41  1  0  0  0  0
 41 47  1  0  0  0  0
 41 42  2  0  0  0  0
 42 43  1  0  0  0  0
 44 42  1  0  0  0  0
 44 48  1  0  0  0  0
 45 44  2  0  0  0  0
 46 40  1  0  0  0  0
 49 45  1  0  0  0  0
 49 50  1  0  0  0  0
 50 52  1  0  0  0  0
 51 49  2  0  0  0  0
 53 50  1  0  0  0  0
M  END
>  <MODEL>
30

>  <REMARK>
 VINA RESULT:    -6.896      4.963     10.392
 INTER + INTRA:          -8.953
 INTER:                  -8.915
 INTRA:                  -0.038
 UNBOUND:                 0.161
  Name = 
  6 active torsions:
  status: ('A' for Active; 'I' for Inactive)
    1  A    between atoms: C_1  and  C_2
    2  A    between atoms: C_8  and  C_9
    3  A    between atoms: C_17  and  N_18
    4  A    between atoms: N_21  and  C_22
    5  A    between atoms: C_22  and  C_23
    6  A    between atoms: C_29  and  C_30
                            x       y       z     vdW  Elec       q    Type
                         _______ _______ _______ _____ _____    ______ ____

>  <TORSDO>
F 6

$$$$
=
 OpenBabel07192307433D

 53 56  0  0  1  0  0  0  0  0999 V2000
    1.9990    6.6270   19.9260 C   0  0  0  0  0  0  0  0  0  0  0  0
    1.4940    6.7480   21.2360 C   0  0  0  0  0  0  0  0  0  0  0  0
    0.9970    7.9690   21.7240 C   0  0  0  0  0  0  0  0  0  0  0  0
    0.9930    9.1050   20.9200 C   0  0  0  0  0  0  0  0  0  0  0  0
    1.4740    8.9970   19.6250 C   0  0  0  0  0  0  0  0  0  0  0  0
    1.9730    7.7780   19.1360 C   0  0  0  0  0  0  0  0  0  0  0  0
    2.5120    7.9580   17.7420 C   0  0  0  0  0  0  0  0  0  0  0  0
    1.8440    9.2720   17.3200 C   0  0  0  0  0  0  0  0  0  0  0  0
    1.6470   10.0900   18.6100 C   0  0  1  0  0  0  0  0  0  0  0  0
    1.5090    5.8910   21.9090 H   0  0  0  0  0  0  0  0  0  0  0  0
    0.6340    8.0270   22.7470 H   0  0  0  0  0  0  0  0  0  0  0  0
    0.6370   10.0570   21.3060 H   0  0  0  0  0  0  0  0  0  0  0  0
    2.2300    7.1400   17.0660 H   0  0  0  0  0  0  0  0  0  0  0  0
    3.6020    8.0640   17.7720 H   0  0  0  0  0  0  0  0  0  0  0  0
    0.8720    9.0500   16.8560 H   0  0  0  0  0  0  0  0  0  0  0  0
    2.4370    9.8100   16.5740 H   0  0  0  0  0  0  0  0  0  0  0  0
    2.5540   10.6650   18.8390 H   0  0  0  0  0  0  0  0  0  0  0  0
    3.9080    5.1620   19.1160 C   0  0  0  0  0  0  0  0  0  0  0  0
    4.3620    3.9730   18.6310 N   0  0  0  0  0  0  0  0  0  0  0  0
    3.4310    2.9950   18.4970 C   0  0  0  0  0  0  0  0  0  0  0  0
    2.0990    3.1770   18.8390 C   0  0  0  0  0  0  0  0  0  0  0  0
    0.8750    1.7430   18.6480 Br  0  0  0  0  0  0  0  0  0  0  0  0
    1.6390    4.3550   19.3130 N   0  0  0  0  0  0  0  0  0  0  0  0
    2.5510    5.3580   19.4370 C   0  0  0  0  0  0  0  0  0  0  0  0
    3.7970    2.0500   18.1100 H   0  0  0  0  0  0  0  0  0  0  0  0
    4.9430    6.2360   19.3010 C   0  0  0  0  0  0  0  0  0  0  0  0
    5.8330    5.8320   19.7900 H   0  0  0  0  0  0  0  0  0  0  0  0
    5.2180    6.6720   18.3360 H   0  0  0  0  0  0  0  0  0  0  0  0
    4.5570    7.0470   19.9310 H   0  0  0  0  0  0  0  0  0  0  0  0
    0.5050   10.9720   18.5410 N   0  0  0  0  0  0  0  0  0  0  0  0
    0.4860   12.1210   19.2850 C   0  0  0  0  0  0  0  0  0  0  0  0
    1.3730   12.4470   20.0580 O   0  0  0  0  0  0  0  0  0  0  0  0
   -0.6700   12.8250   19.0930 N   0  0  0  0  0  0  0  0  0  0  0  0
    0.0260   11.0180   17.6570 H   0  0  0  0  0  0  0  0  0  0  0  0
   -1.4370   12.3090   18.6980 H   0  0  0  0  0  0  0  0  0  0  0  0
   -0.9960   14.0000   19.8790 C   0  0  0  0  0  0  0  0  0  0  0  0
   -0.0830   14.5490   20.1480 H   0  0  0  0  0  0  0  0  0  0  0  0
   -1.5760   14.6460   19.2120 H   0  0  0  0  0  0  0  0  0  0  0  0
   -1.7500   13.6200   21.1340 C   0  0  0  0  0  0  0  0  0  0  0  0
   -1.1520   13.8890   22.3850 C   0  0  0  0  0  0  0  0  0  0  0  0
   -1.7750   13.5200   23.5740 C   0  0  0  0  0  0  0  0  0  0  0  0
   -3.0130   12.9020   23.5300 C   0  0  0  0  0  0  0  0  0  0  0  0
   -3.6190   12.5720   24.6730 F   0  0  0  0  0  0  0  0  0  0  0  0
   -3.6370   12.6330   22.3180 C   0  0  0  0  0  0  0  0  0  0  0  0
   -3.0040   12.9760   21.1190 C   0  0  0  0  0  0  0  0  0  0  0  0
   -0.1860   14.4030   22.4360 H   0  0  0  0  0  0  0  0  0  0  0  0
   -1.3010   13.7160   24.5330 H   0  0  0  0  0  0  0  0  0  0  0  0
   -4.6290   12.1780   22.3200 H   0  0  0  0  0  0  0  0  0  0  0  0
   -3.7220   12.6640   19.8560 C   0  0  0  0  0  0  0  0  0  0  0  0
   -4.7990   13.4550   19.5760 N   0  0  0  0  0  0  0  0  0  0  0  0
   -3.3650   11.7590   19.1130 O   0  0  0  0  0  0  0  0  0  0  0  0
   -5.1360   14.1660   20.2050 H   0  0  0  0  0  0  0  0  0  0  0  0
   -5.3140   13.2680   18.7270 H   0  0  0  0  0  0  0  0  0  0  0  0
  1  2  1  0  0  0  0
  2  3  2  0  0  0  0
  2 10  1  0  0  0  0
  3 11  1  0  0  0  0
  4 12  1  0  0  0  0
  4  3  1  0  0  0  0
  5  4  2  0  0  0  0
  6  5  1  0  0  0  0
  6  1  2  0  0  0  0
  7 14  1  0  0  0  0
  7  6  1  0  0  0  0
  8  7  1  0  0  0  0
  8  9  1  0  0  0  0
  9 17  1  1  0  0  0
  9  5  1  0  0  0  0
 13  7  1  0  0  0  0
 15  8  1  0  0  0  0
 16  8  1  0  0  0  0
 18 26  1  0  0  0  0
 18 24  1  0  0  0  0
 19 18  2  0  0  0  0
 20 19  1  0  0  0  0
 20 21  2  0  0  0  0
 21 23  1  0  0  0  0
 22 21  1  0  0  0  0
 23 24  2  0  0  0  0
 24  1  1  0  0  0  0
 25 20  1  0  0  0  0
 26 27  1  0  0  0  0
 26 29  1  0  0  0  0
 28 26  1  0  0  0  0
 30  9  1  0  0  0  0
 30 31  1  0  0  0  0
 31 32  2  0  0  0  0
 33 31  1  0  0  0  0
 33 36  1  0  0  0  0
 34 30  1  0  0  0  0
 35 33  1  0  0  0  0
 36 37  1  0  0  0  0
 36 39  1  0  0  0  0
 38 36  1  0  0  0  0
 39 40  1  0  0  0  0
 40 46  1  0  0  0  0
 40 41  2  0  0  0  0
 41 47  1  0  0  0  0
 42 41  1  0  0  0  0
 42 43  1  0  0  0  0
 44 48  1  0  0  0  0
 44 42  2  0  0  0  0
 45 39  2  0  0  0  0
 45 44  1  0  0  0  0
 49 45  1  0  0  0  0
 50 49  1  0  0  0  0
 50 52  1  0  0  0  0
 51 49  2  0  0  0  0
 53 50  1  0  0  0  0
M  END
>  <MODEL>
31

>  <REMARK>
 VINA RESULT:    -6.868      4.836      9.858
 INTER + INTRA:          -8.915
 INTER:                  -8.207
 INTRA:                  -0.708
 UNBOUND:                 0.161
  Name = 
  6 active torsions:
  status: ('A' for Active; 'I' for Inactive)
    1  A    between atoms: C_1  and  C_2
    2  A    between atoms: C_8  and  C_9
    3  A    between atoms: C_17  and  N_18
    4  A    between atoms: N_21  and  C_22
    5  A    between atoms: C_22  and  C_23
    6  A    between atoms: C_29  and  C_30
                            x       y       z     vdW  Elec       q    Type
                         _______ _______ _______ _____ _____    ______ ____

>  <TORSDO>
F 6

$$$$
