=
 OpenBabel07192307433D

 40 42  0  0  1  0  0  0  0  0999 V2000
    0.0560   10.6170   19.9130 C   0  0  0  0  0  0  0  0  0  0  0  0
   -0.1290   10.7890   21.2880 C   0  0  0  0  0  0  0  0  0  0  0  0
    0.3930    9.8430   22.1510 C   0  0  0  0  0  0  0  0  0  0  0  0
    1.0720    8.7490   21.7480 N   0  0  0  0  0  0  0  0  0  0  0  0
    1.2410    8.5770   20.4200 C   0  0  0  0  0  0  0  0  0  0  0  0
    0.7510    9.4740   19.4810 C   0  0  0  0  0  0  0  0  0  0  0  0
   -0.6750   11.6360   21.6890 H   0  0  0  0  0  0  0  0  0  0  0  0
    0.2710    9.9420   23.2260 H   0  0  0  0  0  0  0  0  0  0  0  0
    0.8910    9.3130   18.4180 H   0  0  0  0  0  0  0  0  0  0  0  0
    1.9440    7.4120   20.1190 N   0  0  0  0  0  0  0  0  0  0  0  0
    2.5910    7.0770   18.9500 C   0  0  0  0  0  0  0  0  0  0  0  0
    2.6680    7.8030   17.9640 O   0  0  0  0  0  0  0  0  0  0  0  0
    1.9830    6.7970   20.9180 H   0  0  0  0  0  0  0  0  0  0  0  0
    3.2250    5.7390   18.9560 C   0  0  0  0  0  0  0  0  0  0  0  0
    4.5580    5.4570   19.2050 C   0  0  0  0  0  0  0  0  0  0  0  0
    4.8550    3.7710   19.1200 S   0  0  0  0  0  0  0  0  0  0  0  0
    3.1900    3.4950   18.7720 C   0  0  0  0  0  0  0  0  0  0  0  0
    2.4570    4.5950   18.7170 N   0  0  0  0  0  0  0  0  0  0  0  0
    5.3700    6.1290   19.4450 H   0  0  0  0  0  0  0  0  0  0  0  0
    2.7090    2.0850   18.5640 C   0  0  0  0  0  0  0  0  0  0  0  0
    3.7040    1.1730   18.7440 F   0  0  0  0  0  0  0  0  0  0  0  0
    1.7080    1.7330   19.4130 F   0  0  0  0  0  0  0  0  0  0  0  0
    2.2320    1.8890   17.3030 F   0  0  0  0  0  0  0  0  0  0  0  0
   -0.4930   11.5970   18.8850 C   0  0  2  0  0  0  0  0  0  0  0  0
   -0.1570   11.2700   17.8940 H   0  0  0  0  0  0  0  0  0  0  0  0
    0.0220   13.0220   19.1080 C   0  0  0  0  0  0  0  0  0  0  0  0
   -0.7610   13.6490   19.5500 H   0  0  0  0  0  0  0  0  0  0  0  0
    0.8740   13.0400   19.7970 H   0  0  0  0  0  0  0  0  0  0  0  0
    0.3420   13.5050   18.1790 H   0  0  0  0  0  0  0  0  0  0  0  0
   -2.3290   11.5560   18.9230 S   0  0  0  0  0  0  0  0  0  0  0  0
   -2.6890   10.8840   17.3730 C   0  0  0  0  0  0  0  0  0  0  0  0
   -1.9300   10.0860   16.6590 N   0  0  0  0  0  0  0  0  0  0  0  0
   -2.6040    9.8000   15.4920 N   0  0  0  0  0  0  0  0  0  0  0  0
   -3.7550   10.4300   15.5350 C   0  0  0  0  0  0  0  0  0  0  0  0
   -3.8520   11.1270   16.7010 N   0  0  0  0  0  0  0  0  0  0  0  0
   -4.5190   10.4100   14.7700 H   0  0  0  0  0  0  0  0  0  0  0  0
   -4.9670   11.9380   17.1100 C   0  0  0  0  0  0  0  0  0  0  0  0
   -5.4910   12.3110   16.2260 H   0  0  0  0  0  0  0  0  0  0  0  0
   -4.5930   12.7820   17.6940 H   0  0  0  0  0  0  0  0  0  0  0  0
   -5.6490   11.3250   17.7060 H   0  0  0  0  0  0  0  0  0  0  0  0
  1  2  1  0  0  0  0
  2  7  1  0  0  0  0
  2  3  2  0  0  0  0
  3  8  1  0  0  0  0
  4  3  1  0  0  0  0
  5  4  2  0  0  0  0
  6  1  2  0  0  0  0
  6  5  1  0  0  0  0
  9  6  1  0  0  0  0
 10  5  1  0  0  0  0
 10 13  1  0  0  0  0
 11 14  1  0  0  0  0
 11 10  1  0  0  0  0
 12 11  2  0  0  0  0
 14 15  2  0  0  0  0
 15 19  1  0  0  0  0
 16 15  1  0  0  0  0
 17 16  1  0  0  0  0
 18 17  2  0  0  0  0
 18 14  1  0  0  0  0
 20 21  1  0  0  0  0
 20 17  1  0  0  0  0
 20 22  1  0  0  0  0
 23 20  1  0  0  0  0
 24 25  1  6  0  0  0
 24 30  1  0  0  0  0
 24 26  1  0  0  0  0
 24  1  1  0  0  0  0
 26 27  1  0  0  0  0
 26 28  1  0  0  0  0
 29 26  1  0  0  0  0
 31 30  1  0  0  0  0
 32 31  2  0  0  0  0
 33 34  2  0  0  0  0
 33 32  1  0  0  0  0
 34 35  1  0  0  0  0
 35 37  1  0  0  0  0
 35 31  1  0  0  0  0
 36 34  1  0  0  0  0
 37 39  1  0  0  0  0
 37 40  1  0  0  0  0
 38 37  1  0  0  0  0
M  END
>  <MODEL>
1

>  <REMARK>
 VINA RESULT:    -7.107      0.000      0.000
 INTER + INTRA:         -10.594
 INTER:                 -10.268
 INTRA:                  -0.326
 UNBOUND:                -0.579
  Name = 
  8 active torsions:
  status: ('A' for Active; 'I' for Inactive)
    1  A    between atoms: C_1  and  C_2
    2  A    between atoms: C_2  and  C_3
    3  A    between atoms: C_2  and  S_21
    4  A    between atoms: C_7  and  N_9
    5  A    between atoms: C_10  and  C_11
    6  A    between atoms: C_14  and  C_15
    7  A    between atoms: S_21  and  C_22
    8  A    between atoms: N_26  and  C_27
                            x       y       z     vdW  Elec       q    Type
                         _______ _______ _______ _____ _____    ______ ____

>  <TORSDO>
F 8

$$$$
=
 OpenBabel07192307433D

 40 42  0  0  1  0  0  0  0  0999 V2000
    0.1580   10.4670   19.2970 C   0  0  0  0  0  0  0  0  0  0  0  0
   -0.0350   10.2810   20.6680 C   0  0  0  0  0  0  0  0  0  0  0  0
    0.6340    9.2460   21.2980 C   0  0  0  0  0  0  0  0  0  0  0  0
    1.4650    8.3920   20.6650 N   0  0  0  0  0  0  0  0  0  0  0  0
    1.6430    8.5660   19.3380 C   0  0  0  0  0  0  0  0  0  0  0  0
    1.0120    9.5760   18.6260 C   0  0  0  0  0  0  0  0  0  0  0  0
   -0.6980   10.9180   21.2440 H   0  0  0  0  0  0  0  0  0  0  0  0
    0.5110    9.0690   22.3620 H   0  0  0  0  0  0  0  0  0  0  0  0
    1.1630    9.6940   17.5580 H   0  0  0  0  0  0  0  0  0  0  0  0
    2.5090    7.6220   18.7890 N   0  0  0  0  0  0  0  0  0  0  0  0
    2.6250    6.2840   19.0910 C   0  0  0  0  0  0  0  0  0  0  0  0
    1.9290    5.6920   19.9110 O   0  0  0  0  0  0  0  0  0  0  0  0
    3.0630    8.0290   18.0510 H   0  0  0  0  0  0  0  0  0  0  0  0
    3.6720    5.5660   18.3290 C   0  0  0  0  0  0  0  0  0  0  0  0
    3.4780    4.5260   17.4350 C   0  0  0  0  0  0  0  0  0  0  0  0
    4.9690    4.0000   16.7730 S   0  0  0  0  0  0  0  0  0  0  0  0
    5.8010    5.1940   17.6960 C   0  0  0  0  0  0  0  0  0  0  0  0
    5.0140    5.9380   18.4570 N   0  0  0  0  0  0  0  0  0  0  0  0
    2.5590    4.0540   17.1190 H   0  0  0  0  0  0  0  0  0  0  0  0
    7.2970    5.3020   17.5760 C   0  0  0  0  0  0  0  0  0  0  0  0
    7.9180    5.1720   18.7800 F   0  0  0  0  0  0  0  0  0  0  0  0
    7.8360    4.3580   16.7610 F   0  0  0  0  0  0  0  0  0  0  0  0
    7.6820    6.5090   17.0730 F   0  0  0  0  0  0  0  0  0  0  0  0
   -0.5440   11.5700   18.5160 C   0  0  2  0  0  0  0  0  0  0  0  0
   -0.2820   11.4520   17.4570 H   0  0  0  0  0  0  0  0  0  0  0  0
   -0.0990   12.9680   18.9560 C   0  0  0  0  0  0  0  0  0  0  0  0
   -0.7970   13.7280   18.5840 H   0  0  0  0  0  0  0  0  0  0  0  0
   -0.0760   13.0590   20.0470 H   0  0  0  0  0  0  0  0  0  0  0  0
    0.8970   13.2300   18.5840 H   0  0  0  0  0  0  0  0  0  0  0  0
   -2.3620   11.3810   18.6920 S   0  0  0  0  0  0  0  0  0  0  0  0
   -2.8060   10.8360   17.1150 C   0  0  0  0  0  0  0  0  0  0  0  0
   -2.1040   10.0690   16.3140 N   0  0  0  0  0  0  0  0  0  0  0  0
   -2.8320    9.8910   15.1590 N   0  0  0  0  0  0  0  0  0  0  0  0
   -3.9580   10.5530   15.2940 C   0  0  0  0  0  0  0  0  0  0  0  0
   -3.9850   11.1660   16.5110 N   0  0  0  0  0  0  0  0  0  0  0  0
   -4.7520   10.6150   14.5630 H   0  0  0  0  0  0  0  0  0  0  0  0
   -5.0540   11.9800   17.0230 C   0  0  0  0  0  0  0  0  0  0  0  0
   -4.6400   12.7720   17.6530 H   0  0  0  0  0  0  0  0  0  0  0  0
   -5.7200   11.3520   17.6190 H   0  0  0  0  0  0  0  0  0  0  0  0
   -5.5910   12.4260   16.1820 H   0  0  0  0  0  0  0  0  0  0  0  0
  1  2  1  0  0  0  0
  2  7  1  0  0  0  0
  2  3  2  0  0  0  0
  3  8  1  0  0  0  0
  4  3  1  0  0  0  0
  5  4  2  0  0  0  0
  6  1  2  0  0  0  0
  6  5  1  0  0  0  0
  9  6  1  0  0  0  0
 10 11  1  0  0  0  0
 10  5  1  0  0  0  0
 11 12  2  0  0  0  0
 13 10  1  0  0  0  0
 14 18  1  0  0  0  0
 14 11  1  0  0  0  0
 15 14  2  0  0  0  0
 16 15  1  0  0  0  0
 16 17  1  0  0  0  0
 17 18  2  0  0  0  0
 19 15  1  0  0  0  0
 20 17  1  0  0  0  0
 20 21  1  0  0  0  0
 22 20  1  0  0  0  0
 23 20  1  0  0  0  0
 24 25  1  6  0  0  0
 24 30  1  0  0  0  0
 24 26  1  0  0  0  0
 24  1  1  0  0  0  0
 26 28  1  0  0  0  0
 27 26  1  0  0  0  0
 29 26  1  0  0  0  0
 31 30  1  0  0  0  0
 32 31  2  0  0  0  0
 33 34  2  0  0  0  0
 33 32  1  0  0  0  0
 34 35  1  0  0  0  0
 35 37  1  0  0  0  0
 35 31  1  0  0  0  0
 36 34  1  0  0  0  0
 37 39  1  0  0  0  0
 37 38  1  0  0  0  0
 40 37  1  0  0  0  0
M  END
>  <MODEL>
2

>  <REMARK>
 VINA RESULT:    -7.017      2.466      2.839
 INTER + INTRA:         -10.467
 INTER:                 -10.152
 INTRA:                  -0.315
 UNBOUND:                -0.579
  Name = 
  8 active torsions:
  status: ('A' for Active; 'I' for Inactive)
    1  A    between atoms: C_1  and  C_2
    2  A    between atoms: C_2  and  C_3
    3  A    between atoms: C_2  and  S_21
    4  A    between atoms: C_7  and  N_9
    5  A    between atoms: C_10  and  C_11
    6  A    between atoms: C_14  and  C_15
    7  A    between atoms: S_21  and  C_22
    8  A    between atoms: N_26  and  C_27
                            x       y       z     vdW  Elec       q    Type
                         _______ _______ _______ _____ _____    ______ ____

>  <TORSDO>
F 8

$$$$
=
 OpenBabel07192307433D

 40 42  0  0  1  0  0  0  0  0999 V2000
    4.3380    4.9140   16.8520 C   0  0  0  0  0  0  0  0  0  0  0  0
    3.6170    3.7320   17.0390 C   0  0  0  0  0  0  0  0  0  0  0  0
    2.4760    3.7690   17.8200 C   0  0  0  0  0  0  0  0  0  0  0  0
    2.0120    4.8830   18.4250 N   0  0  0  0  0  0  0  0  0  0  0  0
    2.7150    6.0220   18.2520 C   0  0  0  0  0  0  0  0  0  0  0  0
    3.8710    6.0780   17.4860 C   0  0  0  0  0  0  0  0  0  0  0  0
    3.9320    2.7940   16.5970 H   0  0  0  0  0  0  0  0  0  0  0  0
    1.8870    2.8710   17.9890 H   0  0  0  0  0  0  0  0  0  0  0  0
    4.4260    7.0030   17.3670 H   0  0  0  0  0  0  0  0  0  0  0  0
    2.1520    7.1030   18.9290 N   0  0  0  0  0  0  0  0  0  0  0  0
    1.9770    8.3950   18.4870 C   0  0  0  0  0  0  0  0  0  0  0  0
    2.2830    8.7960   17.3690 O   0  0  0  0  0  0  0  0  0  0  0  0
    1.8110    6.8220   19.8350 H   0  0  0  0  0  0  0  0  0  0  0  0
    1.3620    9.3090   19.4770 C   0  0  0  0  0  0  0  0  0  0  0  0
    1.1390   10.6670   19.3230 C   0  0  0  0  0  0  0  0  0  0  0  0
    0.3930   11.3290   20.7160 S   0  0  0  0  0  0  0  0  0  0  0  0
    0.3870    9.7710   21.4540 C   0  0  0  0  0  0  0  0  0  0  0  0
    0.9150    8.8150   20.7070 N   0  0  0  0  0  0  0  0  0  0  0  0
    1.3520   11.3060   18.4780 H   0  0  0  0  0  0  0  0  0  0  0  0
   -0.1920    9.6160   22.8330 C   0  0  0  0  0  0  0  0  0  0  0  0
   -1.0680    8.5770   22.9070 F   0  0  0  0  0  0  0  0  0  0  0  0
    0.7510    9.3930   23.7860 F   0  0  0  0  0  0  0  0  0  0  0  0
   -0.8790   10.7260   23.2250 F   0  0  0  0  0  0  0  0  0  0  0  0
    5.6120    4.9710   16.0200 C   0  0  2  0  0  0  0  0  0  0  0  0
    5.7110    5.9880   15.6220 H   0  0  0  0  0  0  0  0  0  0  0  0
    5.5750    4.0040   14.8320 C   0  0  0  0  0  0  0  0  0  0  0  0
    4.5680    3.5860   14.7090 H   0  0  0  0  0  0  0  0  0  0  0  0
    5.8290    4.5090   13.8940 H   0  0  0  0  0  0  0  0  0  0  0  0
    6.2660    3.1630   14.9500 H   0  0  0  0  0  0  0  0  0  0  0  0
    7.0590    4.6220   17.0960 S   0  0  0  0  0  0  0  0  0  0  0  0
    7.5430    6.2170   17.5490 C   0  0  0  0  0  0  0  0  0  0  0  0
    7.5080    7.2980   16.8050 N   0  0  0  0  0  0  0  0  0  0  0  0
    7.9890    8.3430   17.5610 N   0  0  0  0  0  0  0  0  0  0  0  0
    8.3000    7.8660   18.7450 C   0  0  0  0  0  0  0  0  0  0  0  0
    8.0360    6.5300   18.7830 N   0  0  0  0  0  0  0  0  0  0  0  0
    8.7040    8.4330   19.5730 H   0  0  0  0  0  0  0  0  0  0  0  0
    8.2420    5.6610   19.9090 C   0  0  0  0  0  0  0  0  0  0  0  0
    7.8740    4.6600   19.6700 H   0  0  0  0  0  0  0  0  0  0  0  0
    7.6890    6.0570   20.7650 H   0  0  0  0  0  0  0  0  0  0  0  0
    9.3120    5.6140   20.1270 H   0  0  0  0  0  0  0  0  0  0  0  0
  1  2  2  0  0  0  0
  1  6  1  0  0  0  0
  2  3  1  0  0  0  0
  3  8  1  0  0  0  0
  3  4  2  0  0  0  0
  5  4  1  0  0  0  0
  5 10  1  0  0  0  0
  6  5  2  0  0  0  0
  7  2  1  0  0  0  0
  9  6  1  0  0  0  0
 10 13  1  0  0  0  0
 11 10  1  0  0  0  0
 11 14  1  0  0  0  0
 12 11  2  0  0  0  0
 14 18  1  0  0  0  0
 15 14  2  0  0  0  0
 15 16  1  0  0  0  0
 16 17  1  0  0  0  0
 17 20  1  0  0  0  0
 18 17  2  0  0  0  0
 19 15  1  0  0  0  0
 20 21  1  0  0  0  0
 20 23  1  0  0  0  0
 20 22  1  0  0  0  0
 24 25  1  6  0  0  0
 24  1  1  0  0  0  0
 24 30  1  0  0  0  0
 26 29  1  0  0  0  0
 26 24  1  0  0  0  0
 27 26  1  0  0  0  0
 28 26  1  0  0  0  0
 30 31  1  0  0  0  0
 31 35  1  0  0  0  0
 32 31  2  0  0  0  0
 32 33  1  0  0  0  0
 33 34  2  0  0  0  0
 34 35  1  0  0  0  0
 34 36  1  0  0  0  0
 35 37  1  0  0  0  0
 37 40  1  0  0  0  0
 37 39  1  0  0  0  0
 38 37  1  0  0  0  0
M  END
>  <MODEL>
3

>  <REMARK>
 VINA RESULT:    -6.986      4.354      8.858
 INTER + INTRA:         -10.424
 INTER:                  -9.805
 INTRA:                  -0.619
 UNBOUND:                -0.579
  Name = 
  8 active torsions:
  status: ('A' for Active; 'I' for Inactive)
    1  A    between atoms: C_1  and  C_2
    2  A    between atoms: C_2  and  C_3
    3  A    between atoms: C_2  and  S_21
    4  A    between atoms: C_7  and  N_9
    5  A    between atoms: C_10  and  C_11
    6  A    between atoms: C_14  and  C_15
    7  A    between atoms: S_21  and  C_22
    8  A    between atoms: N_26  and  C_27
                            x       y       z     vdW  Elec       q    Type
                         _______ _______ _______ _____ _____    ______ ____

>  <TORSDO>
F 8

$$$$
=
 OpenBabel07192307433D

 40 42  0  0  1  0  0  0  0  0999 V2000
    0.1760   10.1520   19.4440 C   0  0  0  0  0  0  0  0  0  0  0  0
   -0.3010    9.7440   20.6920 C   0  0  0  0  0  0  0  0  0  0  0  0
    0.2870    8.6500   21.3010 C   0  0  0  0  0  0  0  0  0  0  0  0
    1.3000    7.9410   20.7600 N   0  0  0  0  0  0  0  0  0  0  0  0
    1.7540    8.3300   19.5500 C   0  0  0  0  0  0  0  0  0  0  0  0
    1.2220    9.4140   18.8650 C   0  0  0  0  0  0  0  0  0  0  0  0
   -1.1210   10.2540   21.1860 H   0  0  0  0  0  0  0  0  0  0  0  0
   -0.0550    8.3020   22.2720 H   0  0  0  0  0  0  0  0  0  0  0  0
    1.5960    9.7050   17.8890 H   0  0  0  0  0  0  0  0  0  0  0  0
    2.7890    7.5210   19.0840 N   0  0  0  0  0  0  0  0  0  0  0  0
    2.8130    6.1510   18.9470 C   0  0  0  0  0  0  0  0  0  0  0  0
    1.8700    5.4090   19.2040 O   0  0  0  0  0  0  0  0  0  0  0  0
    3.5740    8.0780   18.7840 H   0  0  0  0  0  0  0  0  0  0  0  0
    4.0910    5.6030   18.4390 C   0  0  0  0  0  0  0  0  0  0  0  0
    5.1960    5.2450   19.1940 C   0  0  0  0  0  0  0  0  0  0  0  0
    6.4540    4.6460   18.1960 S   0  0  0  0  0  0  0  0  0  0  0  0
    5.4610    4.8760   16.8060 C   0  0  0  0  0  0  0  0  0  0  0  0
    4.2640    5.3750   17.0700 N   0  0  0  0  0  0  0  0  0  0  0  0
    5.3380    5.2840   20.2650 H   0  0  0  0  0  0  0  0  0  0  0  0
    6.0010    4.5080   15.4510 C   0  0  0  0  0  0  0  0  0  0  0  0
    7.2680    4.9680   15.2630 F   0  0  0  0  0  0  0  0  0  0  0  0
    6.0430    3.1660   15.2400 F   0  0  0  0  0  0  0  0  0  0  0  0
    5.2490    5.0330   14.4430 F   0  0  0  0  0  0  0  0  0  0  0  0
   -0.4160   11.3360   18.6900 C   0  0  2  0  0  0  0  0  0  0  0  0
   -0.1630   11.2210   17.6290 H   0  0  0  0  0  0  0  0  0  0  0  0
    0.1570   12.6740   19.1660 C   0  0  0  0  0  0  0  0  0  0  0  0
    0.8350   12.5210   20.0140 H   0  0  0  0  0  0  0  0  0  0  0  0
    0.7350   13.1680   18.3780 H   0  0  0  0  0  0  0  0  0  0  0  0
   -0.6200   13.3740   19.4910 H   0  0  0  0  0  0  0  0  0  0  0  0
   -2.2450   11.3140   18.8600 S   0  0  0  0  0  0  0  0  0  0  0  0
   -2.7300   10.7810   17.2900 C   0  0  0  0  0  0  0  0  0  0  0  0
   -2.0490   10.0200   16.4650 N   0  0  0  0  0  0  0  0  0  0  0  0
   -2.8070    9.8510   15.3280 N   0  0  0  0  0  0  0  0  0  0  0  0
   -3.9290   10.5120   15.4980 C   0  0  0  0  0  0  0  0  0  0  0  0
   -3.9240   11.1150   16.7200 N   0  0  0  0  0  0  0  0  0  0  0  0
   -4.7410   10.5780   14.7880 H   0  0  0  0  0  0  0  0  0  0  0  0
   -4.9790   11.9240   17.2660 C   0  0  0  0  0  0  0  0  0  0  0  0
   -4.8970   11.9450   18.3550 H   0  0  0  0  0  0  0  0  0  0  0  0
   -5.9400   11.4880   16.9820 H   0  0  0  0  0  0  0  0  0  0  0  0
   -4.8830   12.9400   16.8730 H   0  0  0  0  0  0  0  0  0  0  0  0
  1  2  1  0  0  0  0
  2  7  1  0  0  0  0
  2  3  2  0  0  0  0
  3  8  1  0  0  0  0
  4  3  1  0  0  0  0
  5  4  2  0  0  0  0
  6  1  2  0  0  0  0
  6  5  1  0  0  0  0
  9  6  1  0  0  0  0
 10  5  1  0  0  0  0
 11 10  1  0  0  0  0
 11 12  2  0  0  0  0
 13 10  1  0  0  0  0
 14 11  1  0  0  0  0
 14 15  2  0  0  0  0
 15 19  1  0  0  0  0
 16 15  1  0  0  0  0
 17 18  2  0  0  0  0
 17 16  1  0  0  0  0
 18 14  1  0  0  0  0
 20 17  1  0  0  0  0
 21 20  1  0  0  0  0
 22 20  1  0  0  0  0
 23 20  1  0  0  0  0
 24 25  1  6  0  0  0
 24 30  1  0  0  0  0
 24 26  1  0  0  0  0
 24  1  1  0  0  0  0
 26 29  1  0  0  0  0
 26 27  1  0  0  0  0
 28 26  1  0  0  0  0
 31 30  1  0  0  0  0
 32 31  2  0  0  0  0
 33 34  2  0  0  0  0
 33 32  1  0  0  0  0
 34 35  1  0  0  0  0
 35 37  1  0  0  0  0
 35 31  1  0  0  0  0
 36 34  1  0  0  0  0
 37 38  1  0  0  0  0
 39 37  1  0  0  0  0
 40 37  1  0  0  0  0
M  END
>  <MODEL>
4

>  <REMARK>
 VINA RESULT:    -6.890      2.274      2.530
 INTER + INTRA:         -10.288
 INTER:                  -9.812
 INTRA:                  -0.477
 UNBOUND:                -0.579
  Name = 
  8 active torsions:
  status: ('A' for Active; 'I' for Inactive)
    1  A    between atoms: C_1  and  C_2
    2  A    between atoms: C_2  and  C_3
    3  A    between atoms: C_2  and  S_21
    4  A    between atoms: C_7  and  N_9
    5  A    between atoms: C_10  and  C_11
    6  A    between atoms: C_14  and  C_15
    7  A    between atoms: S_21  and  C_22
    8  A    between atoms: N_26  and  C_27
                            x       y       z     vdW  Elec       q    Type
                         _______ _______ _______ _____ _____    ______ ____

>  <TORSDO>
F 8

$$$$
=
 OpenBabel07192307433D

 40 42  0  0  1  0  0  0  0  0999 V2000
    4.7730    4.5560   17.3190 C   0  0  0  0  0  0  0  0  0  0  0  0
    3.9230    3.4520   17.2190 C   0  0  0  0  0  0  0  0  0  0  0  0
    2.6260    3.5690   17.6840 C   0  0  0  0  0  0  0  0  0  0  0  0
    2.1230    4.6920   18.2400 N   0  0  0  0  0  0  0  0  0  0  0  0
    2.9480    5.7550   18.3460 C   0  0  0  0  0  0  0  0  0  0  0  0
    4.2640    5.7270   17.9070 C   0  0  0  0  0  0  0  0  0  0  0  0
    4.2570    2.5100   16.7960 H   0  0  0  0  0  0  0  0  0  0  0  0
    1.9340    2.7330   17.6240 H   0  0  0  0  0  0  0  0  0  0  0  0
    4.9130    6.5910   18.0090 H   0  0  0  0  0  0  0  0  0  0  0  0
    2.3290    6.8510   18.9440 N   0  0  0  0  0  0  0  0  0  0  0  0
    2.1800    8.1280   18.4490 C   0  0  0  0  0  0  0  0  0  0  0  0
    2.5670    8.4970   17.3450 O   0  0  0  0  0  0  0  0  0  0  0  0
    1.9210    6.5970   19.8300 H   0  0  0  0  0  0  0  0  0  0  0  0
    1.4850    9.0670   19.3600 C   0  0  0  0  0  0  0  0  0  0  0  0
    1.1510   10.3840   19.0920 C   0  0  0  0  0  0  0  0  0  0  0  0
    0.3450   11.0960   20.4270 S   0  0  0  0  0  0  0  0  0  0  0  0
    0.4650    9.6100   21.2920 C   0  0  0  0  0  0  0  0  0  0  0  0
    1.0750    8.6420   20.6280 N   0  0  0  0  0  0  0  0  0  0  0  0
    1.3150   10.9660   18.1960 H   0  0  0  0  0  0  0  0  0  0  0  0
   -0.1070    9.5230   22.6810 C   0  0  0  0  0  0  0  0  0  0  0  0
    0.8570    9.3190   23.6200 F   0  0  0  0  0  0  0  0  0  0  0  0
   -0.7750   10.6470   23.0540 F   0  0  0  0  0  0  0  0  0  0  0  0
   -0.9890    8.4920   22.8050 F   0  0  0  0  0  0  0  0  0  0  0  0
    6.2200    4.5190   16.8470 C   0  0  2  0  0  0  0  0  0  0  0  0
    6.4230    3.5140   16.4570 H   0  0  0  0  0  0  0  0  0  0  0  0
    7.2100    4.7880   17.9840 C   0  0  0  0  0  0  0  0  0  0  0  0
    6.9280    5.6960   18.5320 H   0  0  0  0  0  0  0  0  0  0  0  0
    7.2240    3.9670   18.7090 H   0  0  0  0  0  0  0  0  0  0  0  0
    8.2360    4.9280   17.6270 H   0  0  0  0  0  0  0  0  0  0  0  0
    6.4490    5.7300   15.4850 S   0  0  0  0  0  0  0  0  0  0  0  0
    6.3500    4.7090   14.0960 C   0  0  0  0  0  0  0  0  0  0  0  0
    5.4530    3.7810   13.8560 N   0  0  0  0  0  0  0  0  0  0  0  0
    5.7550    3.2100   12.6400 N   0  0  0  0  0  0  0  0  0  0  0  0
    6.8260    3.8120   12.1750 C   0  0  0  0  0  0  0  0  0  0  0  0
    7.2370    4.7630   13.0600 N   0  0  0  0  0  0  0  0  0  0  0  0
    7.3190    3.5980   11.2370 H   0  0  0  0  0  0  0  0  0  0  0  0
    8.3720    5.6310   12.9000 C   0  0  0  0  0  0  0  0  0  0  0  0
    8.0350    6.6120   12.5520 H   0  0  0  0  0  0  0  0  0  0  0  0
    9.0470    5.1950   12.1600 H   0  0  0  0  0  0  0  0  0  0  0  0
    8.8720    5.7390   13.8660 H   0  0  0  0  0  0  0  0  0  0  0  0
  1  6  1  0  0  0  0
  2  1  2  0  0  0  0
  2  3  1  0  0  0  0
  3  4  2  0  0  0  0
  4  5  1  0  0  0  0
  5 10  1  0  0  0  0
  6  9  1  0  0  0  0
  6  5  2  0  0  0  0
  7  2  1  0  0  0  0
  8  3  1  0  0  0  0
 10 13  1  0  0  0  0
 11 10  1  0  0  0  0
 11 14  1  0  0  0  0
 12 11  2  0  0  0  0
 14 18  1  0  0  0  0
 15 14  2  0  0  0  0
 15 16  1  0  0  0  0
 16 17  1  0  0  0  0
 17 20  1  0  0  0  0
 18 17  2  0  0  0  0
 19 15  1  0  0  0  0
 20 23  1  0  0  0  0
 20 22  1  0  0  0  0
 20 21  1  0  0  0  0
 24 25  1  6  0  0  0
 24  1  1  0  0  0  0
 24 26  1  0  0  0  0
 26 27  1  0  0  0  0
 26 28  1  0  0  0  0
 29 26  1  0  0  0  0
 30 24  1  0  0  0  0
 31 30  1  0  0  0  0
 32 31  2  0  0  0  0
 33 32  1  0  0  0  0
 34 33  2  0  0  0  0
 34 35  1  0  0  0  0
 35 31  1  0  0  0  0
 36 34  1  0  0  0  0
 37 35  1  0  0  0  0
 37 40  1  0  0  0  0
 38 37  1  0  0  0  0
 39 37  1  0  0  0  0
M  END
>  <MODEL>
5

>  <REMARK>
 VINA RESULT:    -6.873      4.658      8.885
 INTER + INTRA:         -10.265
 INTER:                  -9.637
 INTRA:                  -0.628
 UNBOUND:                -0.579
  Name = 
  8 active torsions:
  status: ('A' for Active; 'I' for Inactive)
    1  A    between atoms: C_1  and  C_2
    2  A    between atoms: C_2  and  C_3
    3  A    between atoms: C_2  and  S_21
    4  A    between atoms: C_7  and  N_9
    5  A    between atoms: C_10  and  C_11
    6  A    between atoms: C_14  and  C_15
    7  A    between atoms: S_21  and  C_22
    8  A    between atoms: N_26  and  C_27
                            x       y       z     vdW  Elec       q    Type
                         _______ _______ _______ _____ _____    ______ ____

>  <TORSDO>
F 8

$$$$
=
 OpenBabel07192307433D

 40 42  0  0  1  0  0  0  0  0999 V2000
    0.1120   11.4520   21.2640 C   0  0  0  0  0  0  0  0  0  0  0  0
   -0.6000   11.3410   22.4610 C   0  0  0  0  0  0  0  0  0  0  0  0
   -0.6030   10.1250   23.1210 C   0  0  0  0  0  0  0  0  0  0  0  0
    0.0390    9.0240   22.6750 N   0  0  0  0  0  0  0  0  0  0  0  0
    0.7180    9.1290   21.5140 C   0  0  0  0  0  0  0  0  0  0  0  0
    0.7750   10.3090   20.7850 C   0  0  0  0  0  0  0  0  0  0  0  0
   -1.1520   12.1760   22.8780 H   0  0  0  0  0  0  0  0  0  0  0  0
   -1.1440    9.9980   24.0540 H   0  0  0  0  0  0  0  0  0  0  0  0
    1.3210   10.3700   19.8480 H   0  0  0  0  0  0  0  0  0  0  0  0
    1.3310    7.9330   21.1450 N   0  0  0  0  0  0  0  0  0  0  0  0
    1.9100    7.6000   19.9400 C   0  0  0  0  0  0  0  0  0  0  0  0
    1.9970    8.3560   18.9770 O   0  0  0  0  0  0  0  0  0  0  0  0
    1.3590    7.2880   21.9190 H   0  0  0  0  0  0  0  0  0  0  0  0
    2.4540    6.2250   19.8740 C   0  0  0  0  0  0  0  0  0  0  0  0
    3.5740    5.8120   19.1720 C   0  0  0  0  0  0  0  0  0  0  0  0
    3.8470    4.1330   19.3860 S   0  0  0  0  0  0  0  0  0  0  0  0
    2.4700    4.0400   20.4170 C   0  0  0  0  0  0  0  0  0  0  0  0
    1.8410    5.1910   20.5890 N   0  0  0  0  0  0  0  0  0  0  0  0
    4.2540    6.3890   18.5620 H   0  0  0  0  0  0  0  0  0  0  0  0
    2.0980    2.7140   21.0240 C   0  0  0  0  0  0  0  0  0  0  0  0
    1.9170    1.7510   20.0800 F   0  0  0  0  0  0  0  0  0  0  0  0
    3.0380    2.2390   21.8830 F   0  0  0  0  0  0  0  0  0  0  0  0
    0.9340    2.7850   21.7290 F   0  0  0  0  0  0  0  0  0  0  0  0
    0.1640   12.7440   20.4610 C   0  0  2  0  0  0  0  0  0  0  0  0
    0.6130   12.5180   19.4860 H   0  0  0  0  0  0  0  0  0  0  0  0
    1.0270   13.8150   21.1370 C   0  0  0  0  0  0  0  0  0  0  0  0
    0.8980   14.7830   20.6380 H   0  0  0  0  0  0  0  0  0  0  0  0
    0.7470   13.9550   22.1860 H   0  0  0  0  0  0  0  0  0  0  0  0
    2.0950   13.5740   21.1110 H   0  0  0  0  0  0  0  0  0  0  0  0
   -1.5440   13.3620   20.1890 S   0  0  0  0  0  0  0  0  0  0  0  0
   -2.1150   12.2720   18.9770 C   0  0  0  0  0  0  0  0  0  0  0  0
   -1.4010   11.6610   18.0600 N   0  0  0  0  0  0  0  0  0  0  0  0
   -2.2580   10.8950   17.3030 N   0  0  0  0  0  0  0  0  0  0  0  0
   -3.4690   11.0600   17.7850 C   0  0  0  0  0  0  0  0  0  0  0  0
   -3.4260   11.9200   18.8410 N   0  0  0  0  0  0  0  0  0  0  0  0
   -4.3700   10.5930   17.4140 H   0  0  0  0  0  0  0  0  0  0  0  0
   -4.5510   12.3450   19.6290 C   0  0  0  0  0  0  0  0  0  0  0  0
   -4.6310   13.4340   19.5960 H   0  0  0  0  0  0  0  0  0  0  0  0
   -4.3980   12.0230   20.6620 H   0  0  0  0  0  0  0  0  0  0  0  0
   -5.4600   11.9000   19.2150 H   0  0  0  0  0  0  0  0  0  0  0  0
  1  2  1  0  0  0  0
  2  7  1  0  0  0  0
  2  3  2  0  0  0  0
  3  8  1  0  0  0  0
  4  3  1  0  0  0  0
  5  4  2  0  0  0  0
  6  1  2  0  0  0  0
  6  5  1  0  0  0  0
  9  6  1  0  0  0  0
 10  5  1  0  0  0  0
 10 13  1  0  0  0  0
 11 10  1  0  0  0  0
 12 11  2  0  0  0  0
 14 11  1  0  0  0  0
 14 18  1  0  0  0  0
 15 16  1  0  0  0  0
 15 14  2  0  0  0  0
 16 17  1  0  0  0  0
 17 18  2  0  0  0  0
 17 20  1  0  0  0  0
 19 15  1  0  0  0  0
 20 23  1  0  0  0  0
 20 22  1  0  0  0  0
 21 20  1  0  0  0  0
 24 25  1  6  0  0  0
 24 26  1  0  0  0  0
 24  1  1  0  0  0  0
 26 28  1  0  0  0  0
 27 26  1  0  0  0  0
 29 26  1  0  0  0  0
 30 24  1  0  0  0  0
 31 30  1  0  0  0  0
 32 31  2  0  0  0  0
 33 34  2  0  0  0  0
 33 32  1  0  0  0  0
 34 35  1  0  0  0  0
 35 31  1  0  0  0  0
 35 37  1  0  0  0  0
 36 34  1  0  0  0  0
 37 39  1  0  0  0  0
 38 37  1  0  0  0  0
 40 37  1  0  0  0  0
M  END
>  <MODEL>
6

>  <REMARK>
 VINA RESULT:    -6.827      1.738      2.100
 INTER + INTRA:         -10.200
 INTER:                  -9.828
 INTRA:                  -0.372
 UNBOUND:                -0.579
  Name = 
  8 active torsions:
  status: ('A' for Active; 'I' for Inactive)
    1  A    between atoms: C_1  and  C_2
    2  A    between atoms: C_2  and  C_3
    3  A    between atoms: C_2  and  S_21
    4  A    between atoms: C_7  and  N_9
    5  A    between atoms: C_10  and  C_11
    6  A    between atoms: C_14  and  C_15
    7  A    between atoms: S_21  and  C_22
    8  A    between atoms: N_26  and  C_27
                            x       y       z     vdW  Elec       q    Type
                         _______ _______ _______ _____ _____    ______ ____

>  <TORSDO>
F 8

$$$$
=
 OpenBabel07192307433D

 40 42  0  0  1  0  0  0  0  0999 V2000
   -0.2430   10.8480   18.6130 C   0  0  0  0  0  0  0  0  0  0  0  0
    0.5600   11.9910   18.6640 C   0  0  0  0  0  0  0  0  0  0  0  0
    1.9120   11.8630   18.4000 C   0  0  0  0  0  0  0  0  0  0  0  0
    2.5140   10.6920   18.1000 N   0  0  0  0  0  0  0  0  0  0  0  0
    1.7390    9.5880   18.0610 C   0  0  0  0  0  0  0  0  0  0  0  0
    0.3750    9.6220   18.3130 C   0  0  0  0  0  0  0  0  0  0  0  0
    0.1540   12.9650   18.9110 H   0  0  0  0  0  0  0  0  0  0  0  0
    2.5700   12.7270   18.4290 H   0  0  0  0  0  0  0  0  0  0  0  0
   -0.2290    8.7210   18.2850 H   0  0  0  0  0  0  0  0  0  0  0  0
    2.4650    8.4380   17.7540 N   0  0  0  0  0  0  0  0  0  0  0  0
    2.7530    7.3620   18.5640 C   0  0  0  0  0  0  0  0  0  0  0  0
    2.3700    7.2420   19.7240 O   0  0  0  0  0  0  0  0  0  0  0  0
    2.7490    8.4390   16.7870 H   0  0  0  0  0  0  0  0  0  0  0  0
    3.5730    6.3090   17.9250 C   0  0  0  0  0  0  0  0  0  0  0  0
    3.1730    5.0180   17.6220 C   0  0  0  0  0  0  0  0  0  0  0  0
    4.4420    4.1410   16.8760 S   0  0  0  0  0  0  0  0  0  0  0  0
    5.4610    5.5270   16.9770 C   0  0  0  0  0  0  0  0  0  0  0  0
    4.8900    6.5800   17.5380 N   0  0  0  0  0  0  0  0  0  0  0  0
    2.2150    4.5410   17.7760 H   0  0  0  0  0  0  0  0  0  0  0  0
    6.8650    5.4450   16.4430 C   0  0  0  0  0  0  0  0  0  0  0  0
    7.5410    4.3740   16.9420 F   0  0  0  0  0  0  0  0  0  0  0  0
    6.9150    5.3350   15.0900 F   0  0  0  0  0  0  0  0  0  0  0  0
    7.5980    6.5470   16.7670 F   0  0  0  0  0  0  0  0  0  0  0  0
   -1.7380   10.8880   18.9010 C   0  0  2  0  0  0  0  0  0  0  0  0
   -1.9570   10.1210   19.6540 H   0  0  0  0  0  0  0  0  0  0  0  0
   -2.5770   10.5760   17.6580 C   0  0  0  0  0  0  0  0  0  0  0  0
   -2.4910   11.3850   16.9230 H   0  0  0  0  0  0  0  0  0  0  0  0
   -2.2410    9.6570   17.1640 H   0  0  0  0  0  0  0  0  0  0  0  0
   -3.6410   10.4540   17.8870 H   0  0  0  0  0  0  0  0  0  0  0  0
   -2.1830   12.5300   19.5910 S   0  0  0  0  0  0  0  0  0  0  0  0
   -2.1800   12.2020   21.2870 C   0  0  0  0  0  0  0  0  0  0  0  0
   -1.2240   11.6340   21.9830 N   0  0  0  0  0  0  0  0  0  0  0  0
   -1.6420   11.5650   23.2930 N   0  0  0  0  0  0  0  0  0  0  0  0
   -2.8410   12.0990   23.3550 C   0  0  0  0  0  0  0  0  0  0  0  0
   -3.2210   12.5130   22.1140 N   0  0  0  0  0  0  0  0  0  0  0  0
   -3.4470   12.2000   24.2440 H   0  0  0  0  0  0  0  0  0  0  0  0
   -4.4680   13.1480   21.7810 C   0  0  0  0  0  0  0  0  0  0  0  0
   -4.6270   13.0960   20.7000 H   0  0  0  0  0  0  0  0  0  0  0  0
   -4.4240   14.1940   22.0920 H   0  0  0  0  0  0  0  0  0  0  0  0
   -5.2780   12.6240   22.2940 H   0  0  0  0  0  0  0  0  0  0  0  0
  1  2  1  0  0  0  0
  1 24  1  0  0  0  0
  2  7  1  0  0  0  0
  3  8  1  0  0  0  0
  3  2  2  0  0  0  0
  4  3  1  0  0  0  0
  5  4  2  0  0  0  0
  5  6  1  0  0  0  0
  6  1  2  0  0  0  0
  9  6  1  0  0  0  0
 10  5  1  0  0  0  0
 10 11  1  0  0  0  0
 11 12  2  0  0  0  0
 13 10  1  0  0  0  0
 14 11  1  0  0  0  0
 15 19  1  0  0  0  0
 15 14  2  0  0  0  0
 16 17  1  0  0  0  0
 16 15  1  0  0  0  0
 17 18  2  0  0  0  0
 18 14  1  0  0  0  0
 20 23  1  0  0  0  0
 20 21  1  0  0  0  0
 20 17  1  0  0  0  0
 22 20  1  0  0  0  0
 24 30  1  0  0  0  0
 24 25  1  1  0  0  0
 26 29  1  0  0  0  0
 26 24  1  0  0  0  0
 27 26  1  0  0  0  0
 28 26  1  0  0  0  0
 30 31  1  0  0  0  0
 31 32  2  0  0  0  0
 31 35  1  0  0  0  0
 32 33  1  0  0  0  0
 33 34  2  0  0  0  0
 34 36  1  0  0  0  0
 35 34  1  0  0  0  0
 37 39  1  0  0  0  0
 37 35  1  0  0  0  0
 37 40  1  0  0  0  0
 38 37  1  0  0  0  0
M  END
>  <MODEL>
7

>  <REMARK>
 VINA RESULT:    -6.690      3.343      4.418
 INTER + INTRA:         -10.007
 INTER:                  -9.342
 INTRA:                  -0.665
 UNBOUND:                -0.579
  Name = 
  8 active torsions:
  status: ('A' for Active; 'I' for Inactive)
    1  A    between atoms: C_1  and  C_2
    2  A    between atoms: C_2  and  C_3
    3  A    between atoms: C_2  and  S_21
    4  A    between atoms: C_7  and  N_9
    5  A    between atoms: C_10  and  C_11
    6  A    between atoms: C_14  and  C_15
    7  A    between atoms: S_21  and  C_22
    8  A    between atoms: N_26  and  C_27
                            x       y       z     vdW  Elec       q    Type
                         _______ _______ _______ _____ _____    ______ ____

>  <TORSDO>
F 8

$$$$
=
 OpenBabel07192307433D

 40 42  0  0  1  0  0  0  0  0999 V2000
    2.6210    5.7000   18.7420 C   0  0  0  0  0  0  0  0  0  0  0  0
    2.1300    5.2230   19.9600 C   0  0  0  0  0  0  0  0  0  0  0  0
    1.5880    6.1260   20.8560 C   0  0  0  0  0  0  0  0  0  0  0  0
    1.5060    7.4540   20.6310 N   0  0  0  0  0  0  0  0  0  0  0  0
    1.9900    7.9160   19.4590 C   0  0  0  0  0  0  0  0  0  0  0  0
    2.5520    7.0830   18.5010 C   0  0  0  0  0  0  0  0  0  0  0  0
    2.1720    4.1700   20.2200 H   0  0  0  0  0  0  0  0  0  0  0  0
    1.1950    5.7940   21.8130 H   0  0  0  0  0  0  0  0  0  0  0  0
    2.9430    7.4760   17.5690 H   0  0  0  0  0  0  0  0  0  0  0  0
    1.8650    9.2990   19.3380 N   0  0  0  0  0  0  0  0  0  0  0  0
    1.0310   10.0170   18.5100 C   0  0  0  0  0  0  0  0  0  0  0  0
    0.2190    9.5180   17.7370 O   0  0  0  0  0  0  0  0  0  0  0  0
    2.4560    9.7740   20.0030 H   0  0  0  0  0  0  0  0  0  0  0  0
    1.1680   11.4870   18.6190 C   0  0  0  0  0  0  0  0  0  0  0  0
    0.2000   12.3780   19.0520 C   0  0  0  0  0  0  0  0  0  0  0  0
    0.7920   13.9860   19.0280 S   0  0  0  0  0  0  0  0  0  0  0  0
    2.3150   13.4180   18.4570 C   0  0  0  0  0  0  0  0  0  0  0  0
    2.3770   12.1070   18.2890 N   0  0  0  0  0  0  0  0  0  0  0  0
   -0.8070   12.1860   19.3940 H   0  0  0  0  0  0  0  0  0  0  0  0
    3.4180   14.4090   18.2010 C   0  0  0  0  0  0  0  0  0  0  0  0
    4.6050   13.7980   17.9400 F   0  0  0  0  0  0  0  0  0  0  0  0
    3.1650   15.2270   17.1450 F   0  0  0  0  0  0  0  0  0  0  0  0
    3.6310   15.2220   19.2740 F   0  0  0  0  0  0  0  0  0  0  0  0
    3.2480    4.7850   17.6990 C   0  0  2  0  0  0  0  0  0  0  0  0
    3.2950    5.3360   16.7510 H   0  0  0  0  0  0  0  0  0  0  0  0
    2.4200    3.5180   17.4640 C   0  0  0  0  0  0  0  0  0  0  0  0
    1.8280    3.2760   18.3540 H   0  0  0  0  0  0  0  0  0  0  0  0
    1.7150    3.6450   16.6350 H   0  0  0  0  0  0  0  0  0  0  0  0
    3.0400    2.6450   17.2370 H   0  0  0  0  0  0  0  0  0  0  0  0
    4.9590    4.3580   18.2110 S   0  0  0  0  0  0  0  0  0  0  0  0
    5.7940    4.4100   16.6990 C   0  0  0  0  0  0  0  0  0  0  0  0
    5.6460    3.5920   15.6830 N   0  0  0  0  0  0  0  0  0  0  0  0
    6.5100    3.9970   14.6900 N   0  0  0  0  0  0  0  0  0  0  0  0
    7.1560    5.0520   15.1320 C   0  0  0  0  0  0  0  0  0  0  0  0
    6.7380    5.3480   16.3950 N   0  0  0  0  0  0  0  0  0  0  0  0
    7.9070    5.6100   14.5910 H   0  0  0  0  0  0  0  0  0  0  0  0
    7.2110    6.4350   17.2070 C   0  0  0  0  0  0  0  0  0  0  0  0
    6.8310    6.3230   18.2260 H   0  0  0  0  0  0  0  0  0  0  0  0
    6.8480    7.3750   16.7850 H   0  0  0  0  0  0  0  0  0  0  0  0
    8.3040    6.4140   17.2220 H   0  0  0  0  0  0  0  0  0  0  0  0
  1  2  1  0  0  0  0
  2  7  1  0  0  0  0
  2  3  2  0  0  0  0
  3  8  1  0  0  0  0
  4  3  1  0  0  0  0
  5  4  2  0  0  0  0
  6  1  2  0  0  0  0
  6  5  1  0  0  0  0
  9  6  1  0  0  0  0
 10  5  1  0  0  0  0
 10 13  1  0  0  0  0
 11 14  1  0  0  0  0
 11 10  1  0  0  0  0
 12 11  2  0  0  0  0
 14 15  2  0  0  0  0
 15 19  1  0  0  0  0
 16 15  1  0  0  0  0
 17 16  1  0  0  0  0
 18 17  2  0  0  0  0
 18 14  1  0  0  0  0
 20 17  1  0  0  0  0
 20 23  1  0  0  0  0
 21 20  1  0  0  0  0
 22 20  1  0  0  0  0
 24 25  1  6  0  0  0
 24 30  1  0  0  0  0
 24  1  1  0  0  0  0
 26 24  1  0  0  0  0
 26 27  1  0  0  0  0
 28 26  1  0  0  0  0
 29 26  1  0  0  0  0
 31 30  1  0  0  0  0
 32 31  2  0  0  0  0
 33 34  2  0  0  0  0
 33 32  1  0  0  0  0
 34 35  1  0  0  0  0
 35 31  1  0  0  0  0
 35 37  1  0  0  0  0
 36 34  1  0  0  0  0
 37 40  1  0  0  0  0
 37 38  1  0  0  0  0
 39 37  1  0  0  0  0
M  END
>  <MODEL>
8

>  <REMARK>
 VINA RESULT:    -6.641      5.190      9.158
 INTER + INTRA:          -9.937
 INTER:                  -9.314
 INTRA:                  -0.623
 UNBOUND:                -0.579
  Name = 
  8 active torsions:
  status: ('A' for Active; 'I' for Inactive)
    1  A    between atoms: C_1  and  C_2
    2  A    between atoms: C_2  and  C_3
    3  A    between atoms: C_2  and  S_21
    4  A    between atoms: C_7  and  N_9
    5  A    between atoms: C_10  and  C_11
    6  A    between atoms: C_14  and  C_15
    7  A    between atoms: S_21  and  C_22
    8  A    between atoms: N_26  and  C_27
                            x       y       z     vdW  Elec       q    Type
                         _______ _______ _______ _____ _____    ______ ____

>  <TORSDO>
F 8

$$$$
=
 OpenBabel07192307433D

 40 42  0  0  1  0  0  0  0  0999 V2000
   -0.2810    9.8960   20.0680 C   0  0  0  0  0  0  0  0  0  0  0  0
   -0.2150    9.8760   21.4630 C   0  0  0  0  0  0  0  0  0  0  0  0
    0.7360    9.0760   22.0710 C   0  0  0  0  0  0  0  0  0  0  0  0
    1.6100    8.2990   21.3970 N   0  0  0  0  0  0  0  0  0  0  0  0
    1.5380    8.3110   20.0490 C   0  0  0  0  0  0  0  0  0  0  0  0
    0.6170    9.0820   19.3550 C   0  0  0  0  0  0  0  0  0  0  0  0
   -0.8910   10.4620   22.0760 H   0  0  0  0  0  0  0  0  0  0  0  0
    0.8190    9.0340   23.1530 H   0  0  0  0  0  0  0  0  0  0  0  0
    0.5710    9.0710   18.2710 H   0  0  0  0  0  0  0  0  0  0  0  0
    2.4770    7.4660   19.4590 N   0  0  0  0  0  0  0  0  0  0  0  0
    2.5710    6.0940   19.5440 C   0  0  0  0  0  0  0  0  0  0  0  0
    1.7880    5.3800   20.1610 O   0  0  0  0  0  0  0  0  0  0  0  0
    3.1120    7.9860   18.8730 H   0  0  0  0  0  0  0  0  0  0  0  0
    3.7120    5.5060   18.8060 C   0  0  0  0  0  0  0  0  0  0  0  0
    3.6420    4.6220   17.7430 C   0  0  0  0  0  0  0  0  0  0  0  0
    5.2080    4.2070   17.1850 S   0  0  0  0  0  0  0  0  0  0  0  0
    5.9060    5.2380   18.3760 C   0  0  0  0  0  0  0  0  0  0  0  0
    5.0240    5.8520   19.1480 N   0  0  0  0  0  0  0  0  0  0  0  0
    2.7730    4.2060   17.2500 H   0  0  0  0  0  0  0  0  0  0  0  0
    7.4030    5.3620   18.4510 C   0  0  0  0  0  0  0  0  0  0  0  0
    8.0350    4.2980   17.8840 F   0  0  0  0  0  0  0  0  0  0  0  0
    7.8780    6.4700   17.8240 F   0  0  0  0  0  0  0  0  0  0  0  0
    7.8450    5.4300   19.7380 F   0  0  0  0  0  0  0  0  0  0  0  0
   -1.3010   10.7350   19.3100 C   0  0  2  0  0  0  0  0  0  0  0  0
   -2.3000   10.3560   19.5560 H   0  0  0  0  0  0  0  0  0  0  0  0
   -1.1230   10.6340   17.7920 C   0  0  0  0  0  0  0  0  0  0  0  0
   -1.6440   11.4580   17.2890 H   0  0  0  0  0  0  0  0  0  0  0  0
   -0.0680   10.6980   17.5040 H   0  0  0  0  0  0  0  0  0  0  0  0
   -1.5190    9.6990   17.3820 H   0  0  0  0  0  0  0  0  0  0  0  0
   -1.1860   12.4820   19.8630 S   0  0  0  0  0  0  0  0  0  0  0  0
   -2.6480   12.6540   20.7660 C   0  0  0  0  0  0  0  0  0  0  0  0
   -3.8750   12.6390   20.3000 N   0  0  0  0  0  0  0  0  0  0  0  0
   -4.7300   12.8150   21.3640 N   0  0  0  0  0  0  0  0  0  0  0  0
   -3.9970   12.9270   22.4480 C   0  0  0  0  0  0  0  0  0  0  0  0
   -2.6780   12.8330   22.1190 N   0  0  0  0  0  0  0  0  0  0  0  0
   -4.3660   13.0740   23.4530 H   0  0  0  0  0  0  0  0  0  0  0  0
   -1.5730   12.9060   23.0350 C   0  0  0  0  0  0  0  0  0  0  0  0
   -1.3980   11.9210   23.4770 H   0  0  0  0  0  0  0  0  0  0  0  0
   -1.8160   13.6210   23.8250 H   0  0  0  0  0  0  0  0  0  0  0  0
   -0.6810   13.2230   22.4880 H   0  0  0  0  0  0  0  0  0  0  0  0
  1  2  1  0  0  0  0
  2  3  2  0  0  0  0
  2  7  1  0  0  0  0
  3  8  1  0  0  0  0
  4  3  1  0  0  0  0
  5  4  2  0  0  0  0
  6  5  1  0  0  0  0
  6  1  2  0  0  0  0
  9  6  1  0  0  0  0
 10 11  1  0  0  0  0
 10  5  1  0  0  0  0
 11 12  2  0  0  0  0
 13 10  1  0  0  0  0
 14 18  1  0  0  0  0
 14 11  1  0  0  0  0
 15 14  2  0  0  0  0
 16 15  1  0  0  0  0
 16 17  1  0  0  0  0
 17 20  1  0  0  0  0
 17 18  2  0  0  0  0
 19 15  1  0  0  0  0
 20 23  1  0  0  0  0
 21 20  1  0  0  0  0
 22 20  1  0  0  0  0
 24 25  1  1  0  0  0
 24 30  1  0  0  0  0
 24  1  1  0  0  0  0
 26 24  1  0  0  0  0
 27 26  1  0  0  0  0
 28 26  1  0  0  0  0
 29 26  1  0  0  0  0
 30 31  1  0  0  0  0
 31 35  1  0  0  0  0
 32 31  2  0  0  0  0
 32 33  1  0  0  0  0
 33 34  2  0  0  0  0
 34 36  1  0  0  0  0
 35 34  1  0  0  0  0
 35 37  1  0  0  0  0
 37 38  1  0  0  0  0
 37 39  1  0  0  0  0
 40 37  1  0  0  0  0
M  END
>  <MODEL>
9

>  <REMARK>
 VINA RESULT:    -6.494      3.185      4.100
 INTER + INTRA:          -9.731
 INTER:                  -9.122
 INTRA:                  -0.609
 UNBOUND:                -0.579
  Name = 
  8 active torsions:
  status: ('A' for Active; 'I' for Inactive)
    1  A    between atoms: C_1  and  C_2
    2  A    between atoms: C_2  and  C_3
    3  A    between atoms: C_2  and  S_21
    4  A    between atoms: C_7  and  N_9
    5  A    between atoms: C_10  and  C_11
    6  A    between atoms: C_14  and  C_15
    7  A    between atoms: S_21  and  C_22
    8  A    between atoms: N_26  and  C_27
                            x       y       z     vdW  Elec       q    Type
                         _______ _______ _______ _____ _____    ______ ____

>  <TORSDO>
F 8

$$$$
=
 OpenBabel07192307433D

 40 42  0  0  1  0  0  0  0  0999 V2000
   -0.2650   11.2970   18.8850 C   0  0  0  0  0  0  0  0  0  0  0  0
    0.6750   12.3090   18.6750 C   0  0  0  0  0  0  0  0  0  0  0  0
    1.9530   11.9570   18.2830 C   0  0  0  0  0  0  0  0  0  0  0  0
    2.3590   10.6830   18.0920 N   0  0  0  0  0  0  0  0  0  0  0  0
    1.4530    9.7050   18.3040 C   0  0  0  0  0  0  0  0  0  0  0  0
    0.1490    9.9660   18.7000 C   0  0  0  0  0  0  0  0  0  0  0  0
    0.4300   13.3560   18.8210 H   0  0  0  0  0  0  0  0  0  0  0  0
    2.7120   12.7140   18.1090 H   0  0  0  0  0  0  0  0  0  0  0  0
   -0.5610    9.1640   18.8730 H   0  0  0  0  0  0  0  0  0  0  0  0
    1.9830    8.4340   18.0890 N   0  0  0  0  0  0  0  0  0  0  0  0
    2.2590    7.4510   19.0140 C   0  0  0  0  0  0  0  0  0  0  0  0
    2.0440    7.5480   20.2180 O   0  0  0  0  0  0  0  0  0  0  0  0
    2.1150    8.2600   17.1050 H   0  0  0  0  0  0  0  0  0  0  0  0
    2.8420    6.2140   18.4460 C   0  0  0  0  0  0  0  0  0  0  0  0
    3.9000    6.1320   17.5560 C   0  0  0  0  0  0  0  0  0  0  0  0
    4.2530    4.5000   17.1700 S   0  0  0  0  0  0  0  0  0  0  0  0
    2.9910    3.9790   18.2210 C   0  0  0  0  0  0  0  0  0  0  0  0
    2.3410    4.9630   18.8200 N   0  0  0  0  0  0  0  0  0  0  0  0
    4.4950    6.9230   17.1200 H   0  0  0  0  0  0  0  0  0  0  0  0
    2.7280    2.5060   18.3760 C   0  0  0  0  0  0  0  0  0  0  0  0
    3.8430    1.8240   18.7580 F   0  0  0  0  0  0  0  0  0  0  0  0
    1.7730    2.2290   19.3020 F   0  0  0  0  0  0  0  0  0  0  0  0
    2.3100    1.9370   17.2110 F   0  0  0  0  0  0  0  0  0  0  0  0
   -1.6920   11.5860   19.3300 C   0  0  2  0  0  0  0  0  0  0  0  0
   -1.9750   10.8260   20.0690 H   0  0  0  0  0  0  0  0  0  0  0  0
   -2.6900   11.5060   18.1710 C   0  0  0  0  0  0  0  0  0  0  0  0
   -3.7100   11.3740   18.5510 H   0  0  0  0  0  0  0  0  0  0  0  0
   -2.6880   12.4240   17.5730 H   0  0  0  0  0  0  0  0  0  0  0  0
   -2.4840   10.6720   17.4930 H   0  0  0  0  0  0  0  0  0  0  0  0
   -1.7580   13.2360   20.1340 S   0  0  0  0  0  0  0  0  0  0  0  0
   -2.7280   12.9030   21.5230 C   0  0  0  0  0  0  0  0  0  0  0  0
   -3.9900   13.2190   21.7030 N   0  0  0  0  0  0  0  0  0  0  0  0
   -4.3610   12.7690   22.9510 N   0  0  0  0  0  0  0  0  0  0  0  0
   -3.3130   12.1890   23.4910 C   0  0  0  0  0  0  0  0  0  0  0  0
   -2.2610   12.2510   22.6270 N   0  0  0  0  0  0  0  0  0  0  0  0
   -3.2740   11.7300   24.4680 H   0  0  0  0  0  0  0  0  0  0  0  0
   -0.9440   11.7230   22.8620 C   0  0  0  0  0  0  0  0  0  0  0  0
   -0.2330   12.5460   22.9650 H   0  0  0  0  0  0  0  0  0  0  0  0
   -0.6580   11.1000   22.0100 H   0  0  0  0  0  0  0  0  0  0  0  0
   -0.9590   11.1360   23.7840 H   0  0  0  0  0  0  0  0  0  0  0  0
  1 24  1  0  0  0  0
  2  7  1  0  0  0  0
  2  1  2  0  0  0  0
  3  2  1  0  0  0  0
  4  3  2  0  0  0  0
  4  5  1  0  0  0  0
  5  6  2  0  0  0  0
  6  9  1  0  0  0  0
  6  1  1  0  0  0  0
  8  3  1  0  0  0  0
 10  5  1  0  0  0  0
 10 11  1  0  0  0  0
 11 12  2  0  0  0  0
 13 10  1  0  0  0  0
 14 18  1  0  0  0  0
 14 11  1  0  0  0  0
 15 14  2  0  0  0  0
 16 15  1  0  0  0  0
 16 17  1  0  0  0  0
 17 20  1  0  0  0  0
 17 18  2  0  0  0  0
 19 15  1  0  0  0  0
 20 21  1  0  0  0  0
 20 22  1  0  0  0  0
 23 20  1  0  0  0  0
 24 25  1  1  0  0  0
 24 30  1  0  0  0  0
 26 27  1  0  0  0  0
 26 24  1  0  0  0  0
 28 26  1  0  0  0  0
 29 26  1  0  0  0  0
 30 31  1  0  0  0  0
 31 32  2  0  0  0  0
 31 35  1  0  0  0  0
 32 33  1  0  0  0  0
 33 34  2  0  0  0  0
 34 36  1  0  0  0  0
 35 37  1  0  0  0  0
 35 34  1  0  0  0  0
 37 38  1  0  0  0  0
 37 40  1  0  0  0  0
 39 37  1  0  0  0  0
M  END
>  <MODEL>
10

>  <REMARK>
 VINA RESULT:    -6.484      2.586      3.754
 INTER + INTRA:          -9.717
 INTER:                  -9.111
 INTRA:                  -0.606
 UNBOUND:                -0.579
  Name = 
  8 active torsions:
  status: ('A' for Active; 'I' for Inactive)
    1  A    between atoms: C_1  and  C_2
    2  A    between atoms: C_2  and  C_3
    3  A    between atoms: C_2  and  S_21
    4  A    between atoms: C_7  and  N_9
    5  A    between atoms: C_10  and  C_11
    6  A    between atoms: C_14  and  C_15
    7  A    between atoms: S_21  and  C_22
    8  A    between atoms: N_26  and  C_27
                            x       y       z     vdW  Elec       q    Type
                         _______ _______ _______ _____ _____    ______ ____

>  <TORSDO>
F 8

$$$$
=
 OpenBabel07192307433D

 40 42  0  0  1  0  0  0  0  0999 V2000
    0.0470   10.5980   20.5210 C   0  0  0  0  0  0  0  0  0  0  0  0
   -0.1930   10.5790   21.8980 C   0  0  0  0  0  0  0  0  0  0  0  0
    0.3070    9.5280   22.6440 C   0  0  0  0  0  0  0  0  0  0  0  0
    1.0170    8.5040   22.1230 N   0  0  0  0  0  0  0  0  0  0  0  0
    1.2400    8.5180   20.7920 C   0  0  0  0  0  0  0  0  0  0  0  0
    0.7740    9.5310   19.9660 C   0  0  0  0  0  0  0  0  0  0  0  0
   -0.7660   11.3590   22.3890 H   0  0  0  0  0  0  0  0  0  0  0  0
    0.1420    9.4770   23.7160 H   0  0  0  0  0  0  0  0  0  0  0  0
    0.9580    9.5190   18.8960 H   0  0  0  0  0  0  0  0  0  0  0  0
    1.9690    7.4100   20.3630 N   0  0  0  0  0  0  0  0  0  0  0  0
    2.4680    7.1440   19.1070 C   0  0  0  0  0  0  0  0  0  0  0  0
    2.3590    7.8940   18.1410 O   0  0  0  0  0  0  0  0  0  0  0  0
    2.1580    6.7840   21.1300 H   0  0  0  0  0  0  0  0  0  0  0  0
    3.1840    5.8540   18.9860 C   0  0  0  0  0  0  0  0  0  0  0  0
    4.5550    5.6620   19.0260 C   0  0  0  0  0  0  0  0  0  0  0  0
    4.9470    4.0020   18.8580 S   0  0  0  0  0  0  0  0  0  0  0  0
    3.2710    3.6150   18.7570 C   0  0  0  0  0  0  0  0  0  0  0  0
    2.4660    4.6630   18.8380 N   0  0  0  0  0  0  0  0  0  0  0  0
    5.3460    6.3860   19.1580 H   0  0  0  0  0  0  0  0  0  0  0  0
    2.8590    2.1780   18.5900 C   0  0  0  0  0  0  0  0  0  0  0  0
    2.3970    1.9190   17.3370 F   0  0  0  0  0  0  0  0  0  0  0  0
    3.8750    1.3040   18.8140 F   0  0  0  0  0  0  0  0  0  0  0  0
    1.8580    1.8320   19.4480 F   0  0  0  0  0  0  0  0  0  0  0  0
   -0.4740   11.7060   19.6160 C   0  0  2  0  0  0  0  0  0  0  0  0
   -1.1910   11.2600   18.9160 H   0  0  0  0  0  0  0  0  0  0  0  0
    0.6420   12.3560   18.7920 C   0  0  0  0  0  0  0  0  0  0  0  0
    0.2720   12.6350   17.7980 H   0  0  0  0  0  0  0  0  0  0  0  0
    1.0110   13.2720   19.2650 H   0  0  0  0  0  0  0  0  0  0  0  0
    1.5010   11.6930   18.6470 H   0  0  0  0  0  0  0  0  0  0  0  0
   -1.3500   12.9610   20.6300 S   0  0  0  0  0  0  0  0  0  0  0  0
   -3.0010   12.6010   20.2730 C   0  0  0  0  0  0  0  0  0  0  0  0
   -3.5000   12.2350   19.1150 N   0  0  0  0  0  0  0  0  0  0  0  0
   -4.8550   12.0580   19.2800 N   0  0  0  0  0  0  0  0  0  0  0  0
   -5.1390   12.3190   20.5360 C   0  0  0  0  0  0  0  0  0  0  0  0
   -4.0010   12.6660   21.1990 N   0  0  0  0  0  0  0  0  0  0  0  0
   -6.1190   12.2700   20.9900 H   0  0  0  0  0  0  0  0  0  0  0  0
   -3.9090   13.0180   22.5900 C   0  0  0  0  0  0  0  0  0  0  0  0
   -3.5930   14.0610   22.6830 H   0  0  0  0  0  0  0  0  0  0  0  0
   -3.1700   12.3710   23.0690 H   0  0  0  0  0  0  0  0  0  0  0  0
   -4.8920   12.8930   23.0510 H   0  0  0  0  0  0  0  0  0  0  0  0
  1  2  1  0  0  0  0
  2  7  1  0  0  0  0
  2  3  2  0  0  0  0
  3  8  1  0  0  0  0
  4  3  1  0  0  0  0
  5  4  2  0  0  0  0
  6  1  2  0  0  0  0
  6  5  1  0  0  0  0
  9  6  1  0  0  0  0
 10  5  1  0  0  0  0
 10 13  1  0  0  0  0
 11 10  1  0  0  0  0
 12 11  2  0  0  0  0
 14 15  2  0  0  0  0
 14 11  1  0  0  0  0
 15 19  1  0  0  0  0
 16 15  1  0  0  0  0
 17 18  2  0  0  0  0
 17 16  1  0  0  0  0
 18 14  1  0  0  0  0
 20 17  1  0  0  0  0
 20 22  1  0  0  0  0
 20 23  1  0  0  0  0
 21 20  1  0  0  0  0
 24 25  1  6  0  0  0
 24  1  1  0  0  0  0
 24 30  1  0  0  0  0
 26 28  1  0  0  0  0
 26 24  1  0  0  0  0
 27 26  1  0  0  0  0
 29 26  1  0  0  0  0
 31 30  1  0  0  0  0
 31 35  1  0  0  0  0
 32 33  1  0  0  0  0
 32 31  2  0  0  0  0
 33 34  2  0  0  0  0
 34 36  1  0  0  0  0
 34 35  1  0  0  0  0
 35 37  1  0  0  0  0
 37 38  1  0  0  0  0
 37 40  1  0  0  0  0
 37 39  1  0  0  0  0
M  END
>  <MODEL>
11

>  <REMARK>
 VINA RESULT:    -6.484      1.926      2.422
 INTER + INTRA:          -9.716
 INTER:                  -9.478
 INTRA:                  -0.238
 UNBOUND:                -0.579
  Name = 
  8 active torsions:
  status: ('A' for Active; 'I' for Inactive)
    1  A    between atoms: C_1  and  C_2
    2  A    between atoms: C_2  and  C_3
    3  A    between atoms: C_2  and  S_21
    4  A    between atoms: C_7  and  N_9
    5  A    between atoms: C_10  and  C_11
    6  A    between atoms: C_14  and  C_15
    7  A    between atoms: S_21  and  C_22
    8  A    between atoms: N_26  and  C_27
                            x       y       z     vdW  Elec       q    Type
                         _______ _______ _______ _____ _____    ______ ____

>  <TORSDO>
F 8

$$$$
=
 OpenBabel07192307433D

 40 42  0  0  1  0  0  0  0  0999 V2000
   -0.6320   11.2020   21.0550 C   0  0  0  0  0  0  0  0  0  0  0  0
   -0.9970   11.2380   22.4030 C   0  0  0  0  0  0  0  0  0  0  0  0
   -0.6510   10.1690   23.2110 C   0  0  0  0  0  0  0  0  0  0  0  0
    0.0170    9.0810   22.7760 N   0  0  0  0  0  0  0  0  0  0  0  0
    0.3600    9.0430   21.4720 C   0  0  0  0  0  0  0  0  0  0  0  0
    0.0540   10.0680   20.5880 C   0  0  0  0  0  0  0  0  0  0  0  0
   -1.5470   12.0720   22.8250 H   0  0  0  0  0  0  0  0  0  0  0  0
   -0.9160   10.1590   24.2650 H   0  0  0  0  0  0  0  0  0  0  0  0
    0.3320   10.0140   19.5400 H   0  0  0  0  0  0  0  0  0  0  0  0
    1.0340    7.8710   21.1320 N   0  0  0  0  0  0  0  0  0  0  0  0
    1.7940    7.6110   20.0130 C   0  0  0  0  0  0  0  0  0  0  0  0
    2.0210    8.4230   19.1210 O   0  0  0  0  0  0  0  0  0  0  0  0
    0.9490    7.1810   21.8620 H   0  0  0  0  0  0  0  0  0  0  0  0
    2.3560    6.2420   19.9520 C   0  0  0  0  0  0  0  0  0  0  0  0
    3.4940    5.8450   19.2690 C   0  0  0  0  0  0  0  0  0  0  0  0
    3.7830    4.1690   19.4800 S   0  0  0  0  0  0  0  0  0  0  0  0
    2.3870    4.0550   20.4840 C   0  0  0  0  0  0  0  0  0  0  0  0
    1.7410    5.1970   20.6490 N   0  0  0  0  0  0  0  0  0  0  0  0
    4.1790    6.4340   18.6750 H   0  0  0  0  0  0  0  0  0  0  0  0
    2.0180    2.7220   21.0770 C   0  0  0  0  0  0  0  0  0  0  0  0
    1.7230    1.8000   20.1210 F   0  0  0  0  0  0  0  0  0  0  0  0
    3.0090    2.1850   21.8370 F   0  0  0  0  0  0  0  0  0  0  0  0
    0.9210    2.8070   21.8800 F   0  0  0  0  0  0  0  0  0  0  0  0
   -0.9790   12.3240   20.0850 C   0  0  2  0  0  0  0  0  0  0  0  0
   -1.1370   13.2390   20.6690 H   0  0  0  0  0  0  0  0  0  0  0  0
   -2.2650   12.0400   19.3030 C   0  0  0  0  0  0  0  0  0  0  0  0
   -2.2910   10.9930   18.9750 H   0  0  0  0  0  0  0  0  0  0  0  0
   -3.1560   12.2060   19.9180 H   0  0  0  0  0  0  0  0  0  0  0  0
   -2.3620   12.6640   18.4090 H   0  0  0  0  0  0  0  0  0  0  0  0
    0.4310   12.5990   18.9410 S   0  0  0  0  0  0  0  0  0  0  0  0
    1.5010   13.5260   19.9290 C   0  0  0  0  0  0  0  0  0  0  0  0
    1.3080   13.8990   21.1730 N   0  0  0  0  0  0  0  0  0  0  0  0
    2.4100   14.6250   21.5690 N   0  0  0  0  0  0  0  0  0  0  0  0
    3.2420   14.6680   20.5530 C   0  0  0  0  0  0  0  0  0  0  0  0
    2.7100   13.9900   19.4980 N   0  0  0  0  0  0  0  0  0  0  0  0
    4.2040   15.1610   20.5400 H   0  0  0  0  0  0  0  0  0  0  0  0
    3.3260   13.8140   18.2110 C   0  0  0  0  0  0  0  0  0  0  0  0
    2.5680   13.5210   17.4800 H   0  0  0  0  0  0  0  0  0  0  0  0
    4.0820   13.0280   18.2870 H   0  0  0  0  0  0  0  0  0  0  0  0
    3.7810   14.7600   17.9050 H   0  0  0  0  0  0  0  0  0  0  0  0
  1  2  1  0  0  0  0
  2  7  1  0  0  0  0
  2  3  2  0  0  0  0
  3  8  1  0  0  0  0
  4  3  1  0  0  0  0
  5  4  2  0  0  0  0
  6  1  2  0  0  0  0
  6  5  1  0  0  0  0
  9  6  1  0  0  0  0
 10  5  1  0  0  0  0
 10 13  1  0  0  0  0
 11 10  1  0  0  0  0
 12 11  2  0  0  0  0
 14 11  1  0  0  0  0
 14 18  1  0  0  0  0
 15 16  1  0  0  0  0
 15 14  2  0  0  0  0
 16 17  1  0  0  0  0
 17 18  2  0  0  0  0
 17 20  1  0  0  0  0
 19 15  1  0  0  0  0
 20 22  1  0  0  0  0
 20 23  1  0  0  0  0
 21 20  1  0  0  0  0
 24 25  1  1  0  0  0
 24  1  1  0  0  0  0
 26 28  1  0  0  0  0
 26 24  1  0  0  0  0
 27 26  1  0  0  0  0
 29 26  1  0  0  0  0
 30 31  1  0  0  0  0
 30 24  1  0  0  0  0
 31 32  2  0  0  0  0
 32 33  1  0  0  0  0
 34 33  2  0  0  0  0
 35 31  1  0  0  0  0
 35 34  1  0  0  0  0
 36 34  1  0  0  0  0
 37 39  1  0  0  0  0
 37 35  1  0  0  0  0
 38 37  1  0  0  0  0
 40 37  1  0  0  0  0
M  END
>  <MODEL>
12

>  <REMARK>
 VINA RESULT:    -6.460      2.936      4.220
 INTER + INTRA:          -9.683
 INTER:                  -9.372
 INTRA:                  -0.311
 UNBOUND:                -0.579
  Name = 
  8 active torsions:
  status: ('A' for Active; 'I' for Inactive)
    1  A    between atoms: C_1  and  C_2
    2  A    between atoms: C_2  and  C_3
    3  A    between atoms: C_2  and  S_21
    4  A    between atoms: C_7  and  N_9
    5  A    between atoms: C_10  and  C_11
    6  A    between atoms: C_14  and  C_15
    7  A    between atoms: S_21  and  C_22
    8  A    between atoms: N_26  and  C_27
                            x       y       z     vdW  Elec       q    Type
                         _______ _______ _______ _____ _____    ______ ____

>  <TORSDO>
F 8

$$$$
=
 OpenBabel07192307433D

 40 42  0  0  1  0  0  0  0  0999 V2000
    2.2550    7.3350   19.5190 C   0  0  0  0  0  0  0  0  0  0  0  0
    2.3390    7.6730   18.1660 C   0  0  0  0  0  0  0  0  0  0  0  0
    1.7950    8.8740   17.7470 C   0  0  0  0  0  0  0  0  0  0  0  0
    1.1770    9.7480   18.5690 N   0  0  0  0  0  0  0  0  0  0  0  0
    1.0870    9.4160   19.8740 C   0  0  0  0  0  0  0  0  0  0  0  0
    1.6030    8.2320   20.3820 C   0  0  0  0  0  0  0  0  0  0  0  0
    2.8090    7.0170   17.4410 H   0  0  0  0  0  0  0  0  0  0  0  0
    1.8410    9.1730   16.7040 H   0  0  0  0  0  0  0  0  0  0  0  0
    1.5120    7.9810   21.4340 H   0  0  0  0  0  0  0  0  0  0  0  0
    0.4200   10.3830   20.6250 N   0  0  0  0  0  0  0  0  0  0  0  0
   -0.3290   10.2170   21.7680 C   0  0  0  0  0  0  0  0  0  0  0  0
   -0.5070    9.1430   22.3340 O   0  0  0  0  0  0  0  0  0  0  0  0
    0.5860   11.3060   20.2530 H   0  0  0  0  0  0  0  0  0  0  0  0
   -0.9240   11.4630   22.3040 C   0  0  0  0  0  0  0  0  0  0  0  0
   -0.4120   12.7440   22.1800 C   0  0  0  0  0  0  0  0  0  0  0  0
   -1.4310   13.8890   22.9440 S   0  0  0  0  0  0  0  0  0  0  0  0
   -2.5160   12.6260   23.3910 C   0  0  0  0  0  0  0  0  0  0  0  0
   -2.1370   11.4210   22.9980 N   0  0  0  0  0  0  0  0  0  0  0  0
    0.4850   13.0790   21.6770 H   0  0  0  0  0  0  0  0  0  0  0  0
   -3.7610   12.9690   24.1630 C   0  0  0  0  0  0  0  0  0  0  0  0
   -4.7750   13.3680   23.3470 F   0  0  0  0  0  0  0  0  0  0  0  0
   -4.2410   11.9260   24.8900 F   0  0  0  0  0  0  0  0  0  0  0  0
   -3.5510   13.9870   25.0430 F   0  0  0  0  0  0  0  0  0  0  0  0
    2.8120    6.0300   20.0720 C   0  0  2  0  0  0  0  0  0  0  0  0
    3.1690    6.2200   21.0920 H   0  0  0  0  0  0  0  0  0  0  0  0
    3.9970    5.5100   19.2510 C   0  0  0  0  0  0  0  0  0  0  0  0
    4.8240    6.2300   19.2720 H   0  0  0  0  0  0  0  0  0  0  0  0
    4.3820    4.5670   19.6530 H   0  0  0  0  0  0  0  0  0  0  0  0
    3.7390    5.3380   18.2010 H   0  0  0  0  0  0  0  0  0  0  0  0
    1.4720    4.7770   20.1450 S   0  0  0  0  0  0  0  0  0  0  0  0
    2.1290    3.5120   19.1710 C   0  0  0  0  0  0  0  0  0  0  0  0
    1.9480    3.3260   17.8840 N   0  0  0  0  0  0  0  0  0  0  0  0
    2.6500    2.1990   17.5200 N   0  0  0  0  0  0  0  0  0  0  0  0
    3.2390    1.7340   18.5980 C   0  0  0  0  0  0  0  0  0  0  0  0
    2.9390    2.5290   19.6630 N   0  0  0  0  0  0  0  0  0  0  0  0
    3.8690    0.8560   18.6500 H   0  0  0  0  0  0  0  0  0  0  0  0
    3.4010    2.3440   21.0110 C   0  0  0  0  0  0  0  0  0  0  0  0
    2.6430    2.7080   21.7100 H   0  0  0  0  0  0  0  0  0  0  0  0
    4.3240    2.9120   21.1480 H   0  0  0  0  0  0  0  0  0  0  0  0
    3.5720    1.2780   21.1820 H   0  0  0  0  0  0  0  0  0  0  0  0
  1 24  1  0  0  0  0
  1  6  1  0  0  0  0
  2  1  2  0  0  0  0
  3  2  1  0  0  0  0
  3  4  2  0  0  0  0
  4  5  1  0  0  0  0
  5  6  2  0  0  0  0
  5 10  1  0  0  0  0
  6  9  1  0  0  0  0
  7  2  1  0  0  0  0
  8  3  1  0  0  0  0
 10 11  1  0  0  0  0
 11 14  1  0  0  0  0
 11 12  2  0  0  0  0
 13 10  1  0  0  0  0
 14 18  1  0  0  0  0
 15 14  2  0  0  0  0
 15 16  1  0  0  0  0
 16 17  1  0  0  0  0
 17 20  1  0  0  0  0
 18 17  2  0  0  0  0
 19 15  1  0  0  0  0
 20 22  1  0  0  0  0
 20 23  1  0  0  0  0
 21 20  1  0  0  0  0
 24 30  1  0  0  0  0
 24 25  1  1  0  0  0
 26 27  1  0  0  0  0
 26 28  1  0  0  0  0
 26 24  1  0  0  0  0
 29 26  1  0  0  0  0
 31 35  1  0  0  0  0
 31 30  1  0  0  0  0
 32 31  2  0  0  0  0
 33 32  1  0  0  0  0
 33 34  2  0  0  0  0
 34 36  1  0  0  0  0
 34 35  1  0  0  0  0
 35 37  1  0  0  0  0
 37 39  1  0  0  0  0
 37 40  1  0  0  0  0
 37 38  1  0  0  0  0
M  END
>  <MODEL>
13

>  <REMARK>
 VINA RESULT:    -6.448      5.664      9.364
 INTER + INTRA:          -9.665
 INTER:                  -9.642
 INTRA:                  -0.023
 UNBOUND:                -0.579
  Name = 
  8 active torsions:
  status: ('A' for Active; 'I' for Inactive)
    1  A    between atoms: C_1  and  C_2
    2  A    between atoms: C_2  and  C_3
    3  A    between atoms: C_2  and  S_21
    4  A    between atoms: C_7  and  N_9
    5  A    between atoms: C_10  and  C_11
    6  A    between atoms: C_14  and  C_15
    7  A    between atoms: S_21  and  C_22
    8  A    between atoms: N_26  and  C_27
                            x       y       z     vdW  Elec       q    Type
                         _______ _______ _______ _____ _____    ______ ____

>  <TORSDO>
F 8

$$$$
=
 OpenBabel07192307433D

 40 42  0  0  1  0  0  0  0  0999 V2000
    3.1480    5.2200   18.7760 C   0  0  0  0  0  0  0  0  0  0  0  0
    2.7330    4.2710   19.7140 C   0  0  0  0  0  0  0  0  0  0  0  0
    1.9480    4.6860   20.7750 C   0  0  0  0  0  0  0  0  0  0  0  0
    1.5580    5.9640   20.9690 N   0  0  0  0  0  0  0  0  0  0  0  0
    1.9680    6.8820   20.0690 C   0  0  0  0  0  0  0  0  0  0  0  0
    2.7570    6.5560   18.9750 C   0  0  0  0  0  0  0  0  0  0  0  0
    3.0160    3.2270   19.6350 H   0  0  0  0  0  0  0  0  0  0  0  0
    1.6050    3.9790   21.5250 H   0  0  0  0  0  0  0  0  0  0  0  0
    3.0830    7.3110   18.2670 H   0  0  0  0  0  0  0  0  0  0  0  0
    1.5180    8.1650   20.3740 N   0  0  0  0  0  0  0  0  0  0  0  0
    1.2050    9.1930   19.5120 C   0  0  0  0  0  0  0  0  0  0  0  0
    1.2550    9.1150   18.2880 O   0  0  0  0  0  0  0  0  0  0  0  0
    1.3840    8.2740   21.3670 H   0  0  0  0  0  0  0  0  0  0  0  0
    0.7750   10.4460   20.1740 C   0  0  0  0  0  0  0  0  0  0  0  0
    1.2360   11.7240   19.9050 C   0  0  0  0  0  0  0  0  0  0  0  0
    0.4560   12.8800   20.9010 S   0  0  0  0  0  0  0  0  0  0  0  0
   -0.4710   11.6250   21.6330 C   0  0  0  0  0  0  0  0  0  0  0  0
   -0.2120   10.4150   21.1650 N   0  0  0  0  0  0  0  0  0  0  0  0
    1.9670   12.0520   19.1790 H   0  0  0  0  0  0  0  0  0  0  0  0
   -1.4670   11.9790   22.7030 C   0  0  0  0  0  0  0  0  0  0  0  0
   -1.0190   12.9800   23.5080 F   0  0  0  0  0  0  0  0  0  0  0  0
   -2.6620   12.3920   22.2040 F   0  0  0  0  0  0  0  0  0  0  0  0
   -1.7360   10.9210   23.5190 F   0  0  0  0  0  0  0  0  0  0  0  0
    4.0230    4.8610   17.5830 C   0  0  2  0  0  0  0  0  0  0  0  0
    4.0840    5.7420   16.9320 H   0  0  0  0  0  0  0  0  0  0  0  0
    3.4390    3.7100   16.7590 C   0  0  0  0  0  0  0  0  0  0  0  0
    2.8430    4.0990   15.9240 H   0  0  0  0  0  0  0  0  0  0  0  0
    4.2260    3.0830   16.3270 H   0  0  0  0  0  0  0  0  0  0  0  0
    2.7870    3.0570   17.3490 H   0  0  0  0  0  0  0  0  0  0  0  0
    5.7140    4.4500   18.1690 S   0  0  0  0  0  0  0  0  0  0  0  0
    6.5320    5.9550   17.9440 C   0  0  0  0  0  0  0  0  0  0  0  0
    6.2370    6.8950   17.0780 N   0  0  0  0  0  0  0  0  0  0  0  0
    7.1490    7.9150   17.2400 N   0  0  0  0  0  0  0  0  0  0  0  0
    7.9690    7.5640   18.2040 C   0  0  0  0  0  0  0  0  0  0  0  0
    7.6190    6.3350   18.6770 N   0  0  0  0  0  0  0  0  0  0  0  0
    8.7990    8.1470   18.5770 H   0  0  0  0  0  0  0  0  0  0  0  0
    8.2780    5.6190   19.7350 C   0  0  0  0  0  0  0  0  0  0  0  0
    8.8350    6.3210   20.3600 H   0  0  0  0  0  0  0  0  0  0  0  0
    8.9690    4.8960   19.2940 H   0  0  0  0  0  0  0  0  0  0  0  0
    7.5220    5.1120   20.3420 H   0  0  0  0  0  0  0  0  0  0  0  0
  1  6  2  0  0  0  0
  1  2  1  0  0  0  0
  2  3  2  0  0  0  0
  3  4  1  0  0  0  0
  3  8  1  0  0  0  0
  5 10  1  0  0  0  0
  5  4  2  0  0  0  0
  6  5  1  0  0  0  0
  7  2  1  0  0  0  0
  9  6  1  0  0  0  0
 10 13  1  0  0  0  0
 11 14  1  0  0  0  0
 11 10  1  0  0  0  0
 12 11  2  0  0  0  0
 14 18  1  0  0  0  0
 15 14  2  0  0  0  0
 15 16  1  0  0  0  0
 16 17  1  0  0  0  0
 17 20  1  0  0  0  0
 18 17  2  0  0  0  0
 19 15  1  0  0  0  0
 20 21  1  0  0  0  0
 20 23  1  0  0  0  0
 22 20  1  0  0  0  0
 24 25  1  6  0  0  0
 24 30  1  0  0  0  0
 24  1  1  0  0  0  0
 26 29  1  0  0  0  0
 26 24  1  0  0  0  0
 27 26  1  0  0  0  0
 28 26  1  0  0  0  0
 31 30  1  0  0  0  0
 31 35  1  0  0  0  0
 32 33  1  0  0  0  0
 32 31  2  0  0  0  0
 33 34  2  0  0  0  0
 34 36  1  0  0  0  0
 34 35  1  0  0  0  0
 35 37  1  0  0  0  0
 37 40  1  0  0  0  0
 37 38  1  0  0  0  0
 39 37  1  0  0  0  0
M  END
>  <MODEL>
14

>  <REMARK>
 VINA RESULT:    -6.446      4.909      8.992
 INTER + INTRA:          -9.663
 INTER:                  -9.185
 INTRA:                  -0.478
 UNBOUND:                -0.579
  Name = 
  8 active torsions:
  status: ('A' for Active; 'I' for Inactive)
    1  A    between atoms: C_1  and  C_2
    2  A    between atoms: C_2  and  C_3
    3  A    between atoms: C_2  and  S_21
    4  A    between atoms: C_7  and  N_9
    5  A    between atoms: C_10  and  C_11
    6  A    between atoms: C_14  and  C_15
    7  A    between atoms: S_21  and  C_22
    8  A    between atoms: N_26  and  C_27
                            x       y       z     vdW  Elec       q    Type
                         _______ _______ _______ _____ _____    ______ ____

>  <TORSDO>
F 8

$$$$
=
 OpenBabel07192307433D

 40 42  0  0  1  0  0  0  0  0999 V2000
   -0.3980   10.8600   20.5520 C   0  0  0  0  0  0  0  0  0  0  0  0
   -1.0790   11.2860   19.4080 C   0  0  0  0  0  0  0  0  0  0  0  0
   -0.7550   10.7110   18.1920 C   0  0  0  0  0  0  0  0  0  0  0  0
    0.1900    9.7610   18.0360 N   0  0  0  0  0  0  0  0  0  0  0  0
    0.8540    9.3580   19.1390 C   0  0  0  0  0  0  0  0  0  0  0  0
    0.5960    9.8790   20.3990 C   0  0  0  0  0  0  0  0  0  0  0  0
   -1.8420   12.0550   19.4500 H   0  0  0  0  0  0  0  0  0  0  0  0
   -1.2620   11.0140   17.2800 H   0  0  0  0  0  0  0  0  0  0  0  0
    1.1480    9.5470   21.2730 H   0  0  0  0  0  0  0  0  0  0  0  0
    1.8120    8.3850   18.8590 N   0  0  0  0  0  0  0  0  0  0  0  0
    2.1460    7.2710   19.5970 C   0  0  0  0  0  0  0  0  0  0  0  0
    1.6040    6.9440   20.6490 O   0  0  0  0  0  0  0  0  0  0  0  0
    2.2480    8.5540   17.9660 H   0  0  0  0  0  0  0  0  0  0  0  0
    3.2340    6.4500   19.0190 C   0  0  0  0  0  0  0  0  0  0  0  0
    3.8670    5.3740   19.6200 C   0  0  0  0  0  0  0  0  0  0  0  0
    5.0620    4.7090   18.5870 S   0  0  0  0  0  0  0  0  0  0  0  0
    4.6680    5.8760   17.3800 C   0  0  0  0  0  0  0  0  0  0  0  0
    3.7060    6.7140   17.7290 N   0  0  0  0  0  0  0  0  0  0  0  0
    3.6950    4.9300   20.5900 H   0  0  0  0  0  0  0  0  0  0  0  0
    5.4120    5.8580   16.0730 C   0  0  0  0  0  0  0  0  0  0  0  0
    6.7440    6.0840   16.2390 F   0  0  0  0  0  0  0  0  0  0  0  0
    5.3030    4.6740   15.4140 F   0  0  0  0  0  0  0  0  0  0  0  0
    4.9630    6.8180   15.2170 F   0  0  0  0  0  0  0  0  0  0  0  0
   -0.6750   11.4420   21.9320 C   0  0  2  0  0  0  0  0  0  0  0  0
    0.1190   12.1630   22.1600 H   0  0  0  0  0  0  0  0  0  0  0  0
   -0.6660   10.3720   23.0270 C   0  0  0  0  0  0  0  0  0  0  0  0
   -1.2620    9.5040   22.7200 H   0  0  0  0  0  0  0  0  0  0  0  0
    0.3480   10.0090   23.2280 H   0  0  0  0  0  0  0  0  0  0  0  0
   -1.0790   10.7340   23.9740 H   0  0  0  0  0  0  0  0  0  0  0  0
   -2.2810   12.3330   21.9060 S   0  0  0  0  0  0  0  0  0  0  0  0
   -2.0690   13.4610   23.1960 C   0  0  0  0  0  0  0  0  0  0  0  0
   -0.9870   14.1470   23.4800 N   0  0  0  0  0  0  0  0  0  0  0  0
   -1.2570   14.9180   24.5880 N   0  0  0  0  0  0  0  0  0  0  0  0
   -2.4990   14.6800   24.9440 C   0  0  0  0  0  0  0  0  0  0  0  0
   -3.0490   13.7670   24.0960 N   0  0  0  0  0  0  0  0  0  0  0  0
   -3.0190   15.1290   25.7790 H   0  0  0  0  0  0  0  0  0  0  0  0
   -4.3920   13.2570   24.1610 C   0  0  0  0  0  0  0  0  0  0  0  0
   -4.9810   13.6720   23.3390 H   0  0  0  0  0  0  0  0  0  0  0  0
   -4.8360   13.5550   25.1140 H   0  0  0  0  0  0  0  0  0  0  0  0
   -4.3600   12.1680   24.0720 H   0  0  0  0  0  0  0  0  0  0  0  0
  1 24  1  0  0  0  0
  2  7  1  0  0  0  0
  2  1  2  0  0  0  0
  3  2  1  0  0  0  0
  4  3  2  0  0  0  0
  4  5  1  0  0  0  0
  5  6  2  0  0  0  0
  6  1  1  0  0  0  0
  6  9  1  0  0  0  0
  8  3  1  0  0  0  0
 10  5  1  0  0  0  0
 10 11  1  0  0  0  0
 11 12  2  0  0  0  0
 13 10  1  0  0  0  0
 14 11  1  0  0  0  0
 14 15  2  0  0  0  0
 15 19  1  0  0  0  0
 16 15  1  0  0  0  0
 17 18  2  0  0  0  0
 17 16  1  0  0  0  0
 18 14  1  0  0  0  0
 20 21  1  0  0  0  0
 20 17  1  0  0  0  0
 22 20  1  0  0  0  0
 23 20  1  0  0  0  0
 24 25  1  1  0  0  0
 24 26  1  0  0  0  0
 26 28  1  0  0  0  0
 26 29  1  0  0  0  0
 27 26  1  0  0  0  0
 30 24  1  0  0  0  0
 30 31  1  0  0  0  0
 31 32  2  0  0  0  0
 31 35  1  0  0  0  0
 32 33  1  0  0  0  0
 33 34  2  0  0  0  0
 34 36  1  0  0  0  0
 35 37  1  0  0  0  0
 35 34  1  0  0  0  0
 37 39  1  0  0  0  0
 38 37  1  0  0  0  0
 40 37  1  0  0  0  0
M  END
>  <MODEL>
15

>  <REMARK>
 VINA RESULT:    -6.421      3.711      5.071
 INTER + INTRA:          -9.628
 INTER:                  -9.216
 INTRA:                  -0.412
 UNBOUND:                -0.579
  Name = 
  8 active torsions:
  status: ('A' for Active; 'I' for Inactive)
    1  A    between atoms: C_1  and  C_2
    2  A    between atoms: C_2  and  C_3
    3  A    between atoms: C_2  and  S_21
    4  A    between atoms: C_7  and  N_9
    5  A    between atoms: C_10  and  C_11
    6  A    between atoms: C_14  and  C_15
    7  A    between atoms: S_21  and  C_22
    8  A    between atoms: N_26  and  C_27
                            x       y       z     vdW  Elec       q    Type
                         _______ _______ _______ _____ _____    ______ ____

>  <TORSDO>
F 8

$$$$
=
 OpenBabel07192307433D

 40 42  0  0  1  0  0  0  0  0999 V2000
   -0.1430   10.3870   20.4660 C   0  0  0  0  0  0  0  0  0  0  0  0
   -0.1610   10.5360   21.8550 C   0  0  0  0  0  0  0  0  0  0  0  0
    0.5230    9.6180   22.6310 C   0  0  0  0  0  0  0  0  0  0  0  0
    1.2110    8.5710   22.1270 N   0  0  0  0  0  0  0  0  0  0  0  0
    1.2190    8.4210   20.7860 C   0  0  0  0  0  0  0  0  0  0  0  0
    0.5600    9.2930   19.9320 C   0  0  0  0  0  0  0  0  0  0  0  0
   -0.7020   11.3440   22.3360 H   0  0  0  0  0  0  0  0  0  0  0  0
    0.5330    9.7000   23.7140 H   0  0  0  0  0  0  0  0  0  0  0  0
    0.5730    9.1500   18.8560 H   0  0  0  0  0  0  0  0  0  0  0  0
    1.9470    7.3040   20.3800 N   0  0  0  0  0  0  0  0  0  0  0  0
    2.5180    7.0500   19.1520 C   0  0  0  0  0  0  0  0  0  0  0  0
    2.4880    7.8210   18.1980 O   0  0  0  0  0  0  0  0  0  0  0  0
    2.0730    6.6580   21.1440 H   0  0  0  0  0  0  0  0  0  0  0  0
    3.2090    5.7450   19.0490 C   0  0  0  0  0  0  0  0  0  0  0  0
    4.5690    5.5170   19.1720 C   0  0  0  0  0  0  0  0  0  0  0  0
    4.9310    3.8510   18.9930 S   0  0  0  0  0  0  0  0  0  0  0  0
    3.2560    3.5100   18.7750 C   0  0  0  0  0  0  0  0  0  0  0  0
    2.4730    4.5750   18.8280 N   0  0  0  0  0  0  0  0  0  0  0  0
    5.3680    6.2170   19.3710 H   0  0  0  0  0  0  0  0  0  0  0  0
    2.8210    2.0870   18.5510 C   0  0  0  0  0  0  0  0  0  0  0  0
    2.3570    1.8870   17.2880 F   0  0  0  0  0  0  0  0  0  0  0  0
    3.8230    1.1880   18.7400 F   0  0  0  0  0  0  0  0  0  0  0  0
    1.8140    1.7240   19.3930 F   0  0  0  0  0  0  0  0  0  0  0  0
   -0.8760   11.3390   19.5320 C   0  0  2  0  0  0  0  0  0  0  0  0
   -1.6750   11.8260   20.1050 H   0  0  0  0  0  0  0  0  0  0  0  0
   -1.5240   10.6110   18.3500 C   0  0  0  0  0  0  0  0  0  0  0  0
   -2.1480    9.7820   18.7060 H   0  0  0  0  0  0  0  0  0  0  0  0
   -2.1740   11.2770   17.7730 H   0  0  0  0  0  0  0  0  0  0  0  0
   -0.7870   10.1910   17.6580 H   0  0  0  0  0  0  0  0  0  0  0  0
    0.2880   12.6310   18.9400 S   0  0  0  0  0  0  0  0  0  0  0  0
    0.2740   13.7390   20.2650 C   0  0  0  0  0  0  0  0  0  0  0  0
   -0.7660   14.3650   20.7640 N   0  0  0  0  0  0  0  0  0  0  0  0
   -0.3230   15.1510   21.8040 N   0  0  0  0  0  0  0  0  0  0  0  0
    0.9750   14.9770   21.9070 C   0  0  0  0  0  0  0  0  0  0  0  0
    1.3950   14.0960   20.9570 N   0  0  0  0  0  0  0  0  0  0  0  0
    1.6240   15.4520   22.6290 H   0  0  0  0  0  0  0  0  0  0  0  0
    2.7470   13.6520   20.7570 C   0  0  0  0  0  0  0  0  0  0  0  0
    3.2770   14.3680   20.1230 H   0  0  0  0  0  0  0  0  0  0  0  0
    2.7290   12.6760   20.2660 H   0  0  0  0  0  0  0  0  0  0  0  0
    3.2450   13.5880   21.7280 H   0  0  0  0  0  0  0  0  0  0  0  0
  1  2  1  0  0  0  0
  2  7  1  0  0  0  0
  2  3  2  0  0  0  0
  3  8  1  0  0  0  0
  4  3  1  0  0  0  0
  5  4  2  0  0  0  0
  6  1  2  0  0  0  0
  6  5  1  0  0  0  0
  9  6  1  0  0  0  0
 10  5  1  0  0  0  0
 10 13  1  0  0  0  0
 11 10  1  0  0  0  0
 12 11  2  0  0  0  0
 14 11  1  0  0  0  0
 14 15  2  0  0  0  0
 15 19  1  0  0  0  0
 16 15  1  0  0  0  0
 17 18  2  0  0  0  0
 17 16  1  0  0  0  0
 18 14  1  0  0  0  0
 20 22  1  0  0  0  0
 20 17  1  0  0  0  0
 20 23  1  0  0  0  0
 21 20  1  0  0  0  0
 24 25  1  1  0  0  0
 24  1  1  0  0  0  0
 26 27  1  0  0  0  0
 26 24  1  0  0  0  0
 28 26  1  0  0  0  0
 29 26  1  0  0  0  0
 30 24  1  0  0  0  0
 30 31  1  0  0  0  0
 31 32  2  0  0  0  0
 31 35  1  0  0  0  0
 32 33  1  0  0  0  0
 33 34  2  0  0  0  0
 34 36  1  0  0  0  0
 35 34  1  0  0  0  0
 37 35  1  0  0  0  0
 37 40  1  0  0  0  0
 38 37  1  0  0  0  0
 39 37  1  0  0  0  0
M  END
>  <MODEL>
16

>  <REMARK>
 VINA RESULT:    -6.403      2.486      3.766
 INTER + INTRA:          -9.602
 INTER:                  -9.253
 INTRA:                  -0.349
 UNBOUND:                -0.579
  Name = 
  8 active torsions:
  status: ('A' for Active; 'I' for Inactive)
    1  A    between atoms: C_1  and  C_2
    2  A    between atoms: C_2  and  C_3
    3  A    between atoms: C_2  and  S_21
    4  A    between atoms: C_7  and  N_9
    5  A    between atoms: C_10  and  C_11
    6  A    between atoms: C_14  and  C_15
    7  A    between atoms: S_21  and  C_22
    8  A    between atoms: N_26  and  C_27
                            x       y       z     vdW  Elec       q    Type
                         _______ _______ _______ _____ _____    ______ ____

>  <TORSDO>
F 8

$$$$
=
 OpenBabel07192307433D

 40 42  0  0  1  0  0  0  0  0999 V2000
    4.9150    4.3950   17.2880 C   0  0  0  0  0  0  0  0  0  0  0  0
    4.0830    3.2950   17.0630 C   0  0  0  0  0  0  0  0  0  0  0  0
    2.7980    3.3220   17.5730 C   0  0  0  0  0  0  0  0  0  0  0  0
    2.2910    4.3490   18.2860 N   0  0  0  0  0  0  0  0  0  0  0  0
    3.0990    5.4070   18.5120 C   0  0  0  0  0  0  0  0  0  0  0  0
    4.4020    5.4660   18.0390 C   0  0  0  0  0  0  0  0  0  0  0  0
    4.4220    2.4260   16.5100 H   0  0  0  0  0  0  0  0  0  0  0  0
    2.1200    2.4870   17.4190 H   0  0  0  0  0  0  0  0  0  0  0  0
    5.0380    6.3230   18.2390 H   0  0  0  0  0  0  0  0  0  0  0  0
    2.4770    6.4000   19.2660 N   0  0  0  0  0  0  0  0  0  0  0  0
    2.2190    7.7080   18.9180 C   0  0  0  0  0  0  0  0  0  0  0  0
    2.4900    8.2050   17.8290 O   0  0  0  0  0  0  0  0  0  0  0  0
    2.1610    6.0360   20.1520 H   0  0  0  0  0  0  0  0  0  0  0  0
    1.5580    8.5090   19.9730 C   0  0  0  0  0  0  0  0  0  0  0  0
    1.3450    8.1310   21.2880 C   0  0  0  0  0  0  0  0  0  0  0  0
    0.5520    9.3720   22.1640 S   0  0  0  0  0  0  0  0  0  0  0  0
    0.5450   10.3630   20.7530 C   0  0  0  0  0  0  0  0  0  0  0  0
    1.0970    9.8000   19.6910 N   0  0  0  0  0  0  0  0  0  0  0  0
    1.6160    7.2130   21.7910 H   0  0  0  0  0  0  0  0  0  0  0  0
   -0.0600   11.7380   20.8270 C   0  0  0  0  0  0  0  0  0  0  0  0
   -0.2820   12.1320   22.1110 F   0  0  0  0  0  0  0  0  0  0  0  0
    0.7220   12.6960   20.2620 F   0  0  0  0  0  0  0  0  0  0  0  0
   -1.2640   11.8000   20.1920 F   0  0  0  0  0  0  0  0  0  0  0  0
    6.3490    4.4530   16.7780 C   0  0  2  0  0  0  0  0  0  0  0  0
    6.5960    3.4720   16.3520 H   0  0  0  0  0  0  0  0  0  0  0  0
    7.3530    4.7430   17.8980 C   0  0  0  0  0  0  0  0  0  0  0  0
    6.8310    4.9200   18.8460 H   0  0  0  0  0  0  0  0  0  0  0  0
    8.0330    3.8990   18.0590 H   0  0  0  0  0  0  0  0  0  0  0  0
    7.9690    5.6260   17.6940 H   0  0  0  0  0  0  0  0  0  0  0  0
    6.4740    5.7140   15.4490 S   0  0  0  0  0  0  0  0  0  0  0  0
    6.4210    4.7280   14.0320 C   0  0  0  0  0  0  0  0  0  0  0  0
    5.5620    3.7730   13.7630 N   0  0  0  0  0  0  0  0  0  0  0  0
    5.8900    3.2470   12.5340 N   0  0  0  0  0  0  0  0  0  0  0  0
    6.9390    3.9020   12.0900 C   0  0  0  0  0  0  0  0  0  0  0  0
    7.3090    4.8440   13.0030 N   0  0  0  0  0  0  0  0  0  0  0  0
    7.4440    3.7330   11.1500 H   0  0  0  0  0  0  0  0  0  0  0  0
    8.4100    5.7600   12.8720 C   0  0  0  0  0  0  0  0  0  0  0  0
    9.0320    5.4630   12.0240 H   0  0  0  0  0  0  0  0  0  0  0  0
    9.0050    5.7280   13.7880 H   0  0  0  0  0  0  0  0  0  0  0  0
    8.0150    6.7640   12.7010 H   0  0  0  0  0  0  0  0  0  0  0  0
  1  6  1  0  0  0  0
  2  1  2  0  0  0  0
  2  3  1  0  0  0  0
  3  4  2  0  0  0  0
  4  5  1  0  0  0  0
  5 10  1  0  0  0  0
  6  9  1  0  0  0  0
  6  5  2  0  0  0  0
  7  2  1  0  0  0  0
  8  3  1  0  0  0  0
 10 13  1  0  0  0  0
 11 10  1  0  0  0  0
 11 14  1  0  0  0  0
 12 11  2  0  0  0  0
 14 15  2  0  0  0  0
 15 19  1  0  0  0  0
 15 16  1  0  0  0  0
 17 20  1  0  0  0  0
 17 16  1  0  0  0  0
 18 14  1  0  0  0  0
 18 17  2  0  0  0  0
 20 21  1  0  0  0  0
 22 20  1  0  0  0  0
 23 20  1  0  0  0  0
 24 25  1  6  0  0  0
 24  1  1  0  0  0  0
 24 26  1  0  0  0  0
 26 28  1  0  0  0  0
 26 27  1  0  0  0  0
 29 26  1  0  0  0  0
 30 24  1  0  0  0  0
 31 30  1  0  0  0  0
 32 31  2  0  0  0  0
 33 32  1  0  0  0  0
 34 33  2  0  0  0  0
 34 35  1  0  0  0  0
 35 31  1  0  0  0  0
 36 34  1  0  0  0  0
 37 35  1  0  0  0  0
 37 39  1  0  0  0  0
 38 37  1  0  0  0  0
 40 37  1  0  0  0  0
M  END
>  <MODEL>
17

>  <REMARK>
 VINA RESULT:    -6.398      5.188      9.190
 INTER + INTRA:          -9.596
 INTER:                  -8.997
 INTRA:                  -0.599
 UNBOUND:                -0.579
  Name = 
  8 active torsions:
  status: ('A' for Active; 'I' for Inactive)
    1  A    between atoms: C_1  and  C_2
    2  A    between atoms: C_2  and  C_3
    3  A    between atoms: C_2  and  S_21
    4  A    between atoms: C_7  and  N_9
    5  A    between atoms: C_10  and  C_11
    6  A    between atoms: C_14  and  C_15
    7  A    between atoms: S_21  and  C_22
    8  A    between atoms: N_26  and  C_27
                            x       y       z     vdW  Elec       q    Type
                         _______ _______ _______ _____ _____    ______ ____

>  <TORSDO>
F 8

$$$$
=
 OpenBabel07192307433D

 40 42  0  0  1  0  0  0  0  0999 V2000
   -0.0120   12.2530   18.9490 C   0  0  0  0  0  0  0  0  0  0  0  0
   -1.2780   11.9660   18.4330 C   0  0  0  0  0  0  0  0  0  0  0  0
   -1.5090   10.7100   17.9020 C   0  0  0  0  0  0  0  0  0  0  0  0
   -0.5780    9.7340   17.8430 N   0  0  0  0  0  0  0  0  0  0  0  0
    0.6480   10.0150   18.3320 C   0  0  0  0  0  0  0  0  0  0  0  0
    0.9690   11.2480   18.8830 C   0  0  0  0  0  0  0  0  0  0  0  0
   -2.0750   12.7020   18.4320 H   0  0  0  0  0  0  0  0  0  0  0  0
   -2.4800   10.4490   17.4910 H   0  0  0  0  0  0  0  0  0  0  0  0
    1.9630   11.4560   19.2630 H   0  0  0  0  0  0  0  0  0  0  0  0
    1.5290    8.9430   18.2090 N   0  0  0  0  0  0  0  0  0  0  0  0
    1.9680    8.0750   19.1850 C   0  0  0  0  0  0  0  0  0  0  0  0
    1.6090    8.1080   20.3580 O   0  0  0  0  0  0  0  0  0  0  0  0
    1.8080    8.8130   17.2480 H   0  0  0  0  0  0  0  0  0  0  0  0
    2.9290    7.0520   18.7150 C   0  0  0  0  0  0  0  0  0  0  0  0
    3.2620    5.8720   19.3600 C   0  0  0  0  0  0  0  0  0  0  0  0
    4.4090    4.9790   18.4530 S   0  0  0  0  0  0  0  0  0  0  0  0
    4.3960    6.1980   17.2350 C   0  0  0  0  0  0  0  0  0  0  0  0
    3.5880    7.2130   17.4920 N   0  0  0  0  0  0  0  0  0  0  0  0
    2.8940    5.4730   20.2950 H   0  0  0  0  0  0  0  0  0  0  0  0
    5.2660    6.0280   16.0200 C   0  0  0  0  0  0  0  0  0  0  0  0
    6.5840    6.2180   16.3020 F   0  0  0  0  0  0  0  0  0  0  0  0
    5.1670    4.7930   15.4610 F   0  0  0  0  0  0  0  0  0  0  0  0
    4.9510    6.9200   15.0390 F   0  0  0  0  0  0  0  0  0  0  0  0
    0.3410   13.6100   19.5430 C   0  0  2  0  0  0  0  0  0  0  0  0
   -0.5660   14.2280   19.5360 H   0  0  0  0  0  0  0  0  0  0  0  0
    1.4110   14.3410   18.7270 C   0  0  0  0  0  0  0  0  0  0  0  0
    1.2410   14.1960   17.6530 H   0  0  0  0  0  0  0  0  0  0  0  0
    1.3930   15.4210   18.9120 H   0  0  0  0  0  0  0  0  0  0  0  0
    2.4240   13.9880   18.9480 H   0  0  0  0  0  0  0  0  0  0  0  0
    0.8850   13.3920   21.2830 S   0  0  0  0  0  0  0  0  0  0  0  0
   -0.6100   13.0310   22.0690 C   0  0  0  0  0  0  0  0  0  0  0  0
   -1.5630   13.8760   22.3850 N   0  0  0  0  0  0  0  0  0  0  0  0
   -2.5680   13.1640   23.0010 N   0  0  0  0  0  0  0  0  0  0  0  0
   -2.1960   11.9050   23.0370 C   0  0  0  0  0  0  0  0  0  0  0  0
   -0.9680   11.7740   22.4620 N   0  0  0  0  0  0  0  0  0  0  0  0
   -2.7640   11.0850   23.4550 H   0  0  0  0  0  0  0  0  0  0  0  0
   -0.2320   10.5480   22.3120 C   0  0  0  0  0  0  0  0  0  0  0  0
   -0.5820   10.0180   21.4230 H   0  0  0  0  0  0  0  0  0  0  0  0
   -0.3990    9.9270   23.1960 H   0  0  0  0  0  0  0  0  0  0  0  0
    0.8300   10.7860   22.2000 H   0  0  0  0  0  0  0  0  0  0  0  0
  1 24  1  0  0  0  0
  2  1  2  0  0  0  0
  3  2  1  0  0  0  0
  4  3  2  0  0  0  0
  4  5  1  0  0  0  0
  5  6  2  0  0  0  0
  6  1  1  0  0  0  0
  6  9  1  0  0  0  0
  7  2  1  0  0  0  0
  8  3  1  0  0  0  0
 10  5  1  0  0  0  0
 10 11  1  0  0  0  0
 11 12  2  0  0  0  0
 13 10  1  0  0  0  0
 14 11  1  0  0  0  0
 14 15  2  0  0  0  0
 15 19  1  0  0  0  0
 16 15  1  0  0  0  0
 17 18  2  0  0  0  0
 17 16  1  0  0  0  0
 18 14  1  0  0  0  0
 20 21  1  0  0  0  0
 20 17  1  0  0  0  0
 22 20  1  0  0  0  0
 23 20  1  0  0  0  0
 24 25  1  1  0  0  0
 24 30  1  0  0  0  0
 26 28  1  0  0  0  0
 26 29  1  0  0  0  0
 26 24  1  0  0  0  0
 27 26  1  0  0  0  0
 30 31  1  0  0  0  0
 31 32  2  0  0  0  0
 31 35  1  0  0  0  0
 32 33  1  0  0  0  0
 33 34  2  0  0  0  0
 34 36  1  0  0  0  0
 35 34  1  0  0  0  0
 37 35  1  0  0  0  0
 37 39  1  0  0  0  0
 38 37  1  0  0  0  0
 40 37  1  0  0  0  0
M  END
>  <MODEL>
18

>  <REMARK>
 VINA RESULT:    -6.396      3.165      4.630
 INTER + INTRA:          -9.592
 INTER:                  -8.621
 INTRA:                  -0.971
 UNBOUND:                -0.579
  Name = 
  8 active torsions:
  status: ('A' for Active; 'I' for Inactive)
    1  A    between atoms: C_1  and  C_2
    2  A    between atoms: C_2  and  C_3
    3  A    between atoms: C_2  and  S_21
    4  A    between atoms: C_7  and  N_9
    5  A    between atoms: C_10  and  C_11
    6  A    between atoms: C_14  and  C_15
    7  A    between atoms: S_21  and  C_22
    8  A    between atoms: N_26  and  C_27
                            x       y       z     vdW  Elec       q    Type
                         _______ _______ _______ _____ _____    ______ ____

>  <TORSDO>
F 8

$$$$
=
 OpenBabel07192307433D

 40 42  0  0  1  0  0  0  0  0999 V2000
   -0.1300   10.0090   19.8700 C   0  0  0  0  0  0  0  0  0  0  0  0
   -0.1890    9.8250   21.2540 C   0  0  0  0  0  0  0  0  0  0  0  0
    0.6520    8.8940   21.8360 C   0  0  0  0  0  0  0  0  0  0  0  0
    1.5330    8.1390   21.1450 N   0  0  0  0  0  0  0  0  0  0  0  0
    1.5820    8.3100   19.8070 C   0  0  0  0  0  0  0  0  0  0  0  0
    0.7750    9.2200   19.1390 C   0  0  0  0  0  0  0  0  0  0  0  0
   -0.8800   10.3840   21.8760 H   0  0  0  0  0  0  0  0  0  0  0  0
    0.6370    8.7220   22.9080 H   0  0  0  0  0  0  0  0  0  0  0  0
    0.8240    9.3360   18.0620 H   0  0  0  0  0  0  0  0  0  0  0  0
    2.5150    7.4730   19.1970 N   0  0  0  0  0  0  0  0  0  0  0  0
    2.6130    6.1010   19.2670 C   0  0  0  0  0  0  0  0  0  0  0  0
    1.8390    5.3780   19.8880 O   0  0  0  0  0  0  0  0  0  0  0  0
    3.1410    8.0000   18.6080 H   0  0  0  0  0  0  0  0  0  0  0  0
    3.7460    5.5220   18.5100 C   0  0  0  0  0  0  0  0  0  0  0  0
    3.6640    4.6470   17.4400 C   0  0  0  0  0  0  0  0  0  0  0  0
    5.2240    4.2410   16.8580 S   0  0  0  0  0  0  0  0  0  0  0  0
    5.9350    5.2640   18.0490 C   0  0  0  0  0  0  0  0  0  0  0  0
    5.0610    5.8690   18.8370 N   0  0  0  0  0  0  0  0  0  0  0  0
    2.7900    4.2330   16.9560 H   0  0  0  0  0  0  0  0  0  0  0  0
    7.4330    5.3920   18.1050 C   0  0  0  0  0  0  0  0  0  0  0  0
    7.8880    5.5170   19.3820 F   0  0  0  0  0  0  0  0  0  0  0  0
    8.0790    4.3240   17.5680 F   0  0  0  0  0  0  0  0  0  0  0  0
    7.8760    6.4900   17.4300 F   0  0  0  0  0  0  0  0  0  0  0  0
   -1.0250   11.0010   19.1390 C   0  0  2  0  0  0  0  0  0  0  0  0
   -1.8110   11.3220   19.8330 H   0  0  0  0  0  0  0  0  0  0  0  0
   -1.7060   10.3770   17.9160 C   0  0  0  0  0  0  0  0  0  0  0  0
   -1.1860   10.6700   16.9960 H   0  0  0  0  0  0  0  0  0  0  0  0
   -1.6890    9.2830   17.9600 H   0  0  0  0  0  0  0  0  0  0  0  0
   -2.7520   10.6860   17.8130 H   0  0  0  0  0  0  0  0  0  0  0  0
   -0.0380   12.4710   18.6540 S   0  0  0  0  0  0  0  0  0  0  0  0
    0.0810   13.3160   20.1550 C   0  0  0  0  0  0  0  0  0  0  0  0
   -0.8930   13.5810   20.9950 N   0  0  0  0  0  0  0  0  0  0  0  0
   -0.3540   14.2760   22.0550 N   0  0  0  0  0  0  0  0  0  0  0  0
    0.9330   14.4090   21.8290 C   0  0  0  0  0  0  0  0  0  0  0  0
    1.2520   13.8210   20.6430 N   0  0  0  0  0  0  0  0  0  0  0  0
    1.6430   14.9070   22.4740 H   0  0  0  0  0  0  0  0  0  0  0  0
    2.5630   13.7580   20.0570 C   0  0  0  0  0  0  0  0  0  0  0  0
    2.4760   13.7330   18.9680 H   0  0  0  0  0  0  0  0  0  0  0  0
    3.0610   12.8490   20.4040 H   0  0  0  0  0  0  0  0  0  0  0  0
    3.1260   14.6460   20.3570 H   0  0  0  0  0  0  0  0  0  0  0  0
  1  2  1  0  0  0  0
  2  3  2  0  0  0  0
  2  7  1  0  0  0  0
  3  8  1  0  0  0  0
  4  3  1  0  0  0  0
  5  4  2  0  0  0  0
  6  5  1  0  0  0  0
  6  1  2  0  0  0  0
  9  6  1  0  0  0  0
 10 11  1  0  0  0  0
 10  5  1  0  0  0  0
 11 12  2  0  0  0  0
 13 10  1  0  0  0  0
 14 18  1  0  0  0  0
 14 11  1  0  0  0  0
 15 14  2  0  0  0  0
 16 15  1  0  0  0  0
 16 17  1  0  0  0  0
 17 20  1  0  0  0  0
 17 18  2  0  0  0  0
 19 15  1  0  0  0  0
 20 21  1  0  0  0  0
 22 20  1  0  0  0  0
 23 20  1  0  0  0  0
 24 25  1  1  0  0  0
 24  1  1  0  0  0  0
 26 28  1  0  0  0  0
 26 24  1  0  0  0  0
 27 26  1  0  0  0  0
 29 26  1  0  0  0  0
 30 24  1  0  0  0  0
 30 31  1  0  0  0  0
 31 35  1  0  0  0  0
 31 32  2  0  0  0  0
 32 33  1  0  0  0  0
 34 33  2  0  0  0  0
 34 36  1  0  0  0  0
 35 34  1  0  0  0  0
 37 40  1  0  0  0  0
 37 39  1  0  0  0  0
 37 35  1  0  0  0  0
 38 37  1  0  0  0  0
M  END
>  <MODEL>
19

>  <REMARK>
 VINA RESULT:    -6.390      3.385      4.536
 INTER + INTRA:          -9.584
 INTER:                  -9.052
 INTRA:                  -0.532
 UNBOUND:                -0.579
  Name = 
  8 active torsions:
  status: ('A' for Active; 'I' for Inactive)
    1  A    between atoms: C_1  and  C_2
    2  A    between atoms: C_2  and  C_3
    3  A    between atoms: C_2  and  S_21
    4  A    between atoms: C_7  and  N_9
    5  A    between atoms: C_10  and  C_11
    6  A    between atoms: C_14  and  C_15
    7  A    between atoms: S_21  and  C_22
    8  A    between atoms: N_26  and  C_27
                            x       y       z     vdW  Elec       q    Type
                         _______ _______ _______ _____ _____    ______ ____

>  <TORSDO>
F 8

$$$$
=
 OpenBabel07192307433D

 40 42  0  0  1  0  0  0  0  0999 V2000
    3.3630    6.0560   19.0890 C   0  0  0  0  0  0  0  0  0  0  0  0
    2.8670    5.0190   19.8840 C   0  0  0  0  0  0  0  0  0  0  0  0
    1.8340    5.2930   20.7620 C   0  0  0  0  0  0  0  0  0  0  0  0
    1.2700    6.5110   20.9060 N   0  0  0  0  0  0  0  0  0  0  0  0
    1.7570    7.5140   20.1460 C   0  0  0  0  0  0  0  0  0  0  0  0
    2.7930    7.3310   19.2400 C   0  0  0  0  0  0  0  0  0  0  0  0
    3.2760    4.0160   19.8350 H   0  0  0  0  0  0  0  0  0  0  0  0
    1.4200    4.5140   21.3960 H   0  0  0  0  0  0  0  0  0  0  0  0
    3.1750    8.1540   18.6440 H   0  0  0  0  0  0  0  0  0  0  0  0
    1.1110    8.7260   20.3860 N   0  0  0  0  0  0  0  0  0  0  0  0
    0.6520    9.6500   19.4730 C   0  0  0  0  0  0  0  0  0  0  0  0
    0.7250    9.5210   18.2550 O   0  0  0  0  0  0  0  0  0  0  0  0
    0.9520    8.8610   21.3720 H   0  0  0  0  0  0  0  0  0  0  0  0
    0.0270   10.8510   20.0710 C   0  0  0  0  0  0  0  0  0  0  0  0
    0.0330   12.1340   19.5480 C   0  0  0  0  0  0  0  0  0  0  0  0
   -0.8210   13.2160   20.5660 S   0  0  0  0  0  0  0  0  0  0  0  0
   -1.1720   11.9220   21.6490 C   0  0  0  0  0  0  0  0  0  0  0  0
   -0.6780   10.7520   21.2760 N   0  0  0  0  0  0  0  0  0  0  0  0
    0.4690   12.4990   18.6290 H   0  0  0  0  0  0  0  0  0  0  0  0
   -1.9810   12.2000   22.8860 C   0  0  0  0  0  0  0  0  0  0  0  0
   -1.3900   13.1300   23.6850 F   0  0  0  0  0  0  0  0  0  0  0  0
   -3.2290   12.6640   22.6140 F   0  0  0  0  0  0  0  0  0  0  0  0
   -2.1430   11.0840   23.6510 F   0  0  0  0  0  0  0  0  0  0  0  0
    4.5070    5.8550   18.1040 C   0  0  2  0  0  0  0  0  0  0  0  0
    5.4500    5.9440   18.6590 H   0  0  0  0  0  0  0  0  0  0  0  0
    4.5140    6.9140   16.9970 C   0  0  0  0  0  0  0  0  0  0  0  0
    5.4450    6.8600   16.4210 H   0  0  0  0  0  0  0  0  0  0  0  0
    3.6900    6.7640   16.2910 H   0  0  0  0  0  0  0  0  0  0  0  0
    4.4290    7.9330   17.3880 H   0  0  0  0  0  0  0  0  0  0  0  0
    4.4070    4.1670   17.3890 S   0  0  0  0  0  0  0  0  0  0  0  0
    5.4600    4.3060   16.0280 C   0  0  0  0  0  0  0  0  0  0  0  0
    5.1240    4.2790   14.7590 N   0  0  0  0  0  0  0  0  0  0  0  0
    6.2750    4.4180   14.0170 N   0  0  0  0  0  0  0  0  0  0  0  0
    7.2780    4.5300   14.8580 C   0  0  0  0  0  0  0  0  0  0  0  0
    6.8110    4.4630   16.1370 N   0  0  0  0  0  0  0  0  0  0  0  0
    8.3190    4.6550   14.5940 H   0  0  0  0  0  0  0  0  0  0  0  0
    7.6070    4.5500   17.3310 C   0  0  0  0  0  0  0  0  0  0  0  0
    8.3390    5.3550   17.2250 H   0  0  0  0  0  0  0  0  0  0  0  0
    8.1280    3.6010   17.4770 H   0  0  0  0  0  0  0  0  0  0  0  0
    6.9490    4.7650   18.1780 H   0  0  0  0  0  0  0  0  0  0  0  0
  1  6  2  0  0  0  0
  1  2  1  0  0  0  0
  2  3  2  0  0  0  0
  3  4  1  0  0  0  0
  3  8  1  0  0  0  0
  5 10  1  0  0  0  0
  5  4  2  0  0  0  0
  6  5  1  0  0  0  0
  7  2  1  0  0  0  0
  9  6  1  0  0  0  0
 10 13  1  0  0  0  0
 11 14  1  0  0  0  0
 11 10  1  0  0  0  0
 12 11  2  0  0  0  0
 14 18  1  0  0  0  0
 15 14  2  0  0  0  0
 15 16  1  0  0  0  0
 16 17  1  0  0  0  0
 17 20  1  0  0  0  0
 18 17  2  0  0  0  0
 19 15  1  0  0  0  0
 20 23  1  0  0  0  0
 20 21  1  0  0  0  0
 22 20  1  0  0  0  0
 24 25  1  1  0  0  0
 24  1  1  0  0  0  0
 26 29  1  0  0  0  0
 26 24  1  0  0  0  0
 27 26  1  0  0  0  0
 28 26  1  0  0  0  0
 30 24  1  0  0  0  0
 31 35  1  0  0  0  0
 31 30  1  0  0  0  0
 32 31  2  0  0  0  0
 33 32  1  0  0  0  0
 33 34  2  0  0  0  0
 34 35  1  0  0  0  0
 35 37  1  0  0  0  0
 36 34  1  0  0  0  0
 37 39  1  0  0  0  0
 37 40  1  0  0  0  0
 38 37  1  0  0  0  0
M  END
>  <MODEL>
20

>  <REMARK>
 VINA RESULT:    -6.378      4.903      9.048
 INTER + INTRA:          -9.568
 INTER:                  -9.199
 INTRA:                  -0.369
 UNBOUND:                -0.579
  Name = 
  8 active torsions:
  status: ('A' for Active; 'I' for Inactive)
    1  A    between atoms: C_1  and  C_2
    2  A    between atoms: C_2  and  C_3
    3  A    between atoms: C_2  and  S_21
    4  A    between atoms: C_7  and  N_9
    5  A    between atoms: C_10  and  C_11
    6  A    between atoms: C_14  and  C_15
    7  A    between atoms: S_21  and  C_22
    8  A    between atoms: N_26  and  C_27
                            x       y       z     vdW  Elec       q    Type
                         _______ _______ _______ _____ _____    ______ ____

>  <TORSDO>
F 8

$$$$
=
 OpenBabel07192307433D

 40 42  0  0  1  0  0  0  0  0999 V2000
    0.0700   10.8940   20.8690 C   0  0  0  0  0  0  0  0  0  0  0  0
    0.0920   11.6060   19.6670 C   0  0  0  0  0  0  0  0  0  0  0  0
    0.6370   11.0010   18.5480 C   0  0  0  0  0  0  0  0  0  0  0  0
    1.1590    9.7570   18.5440 N   0  0  0  0  0  0  0  0  0  0  0  0
    1.1470    9.0740   19.7080 C   0  0  0  0  0  0  0  0  0  0  0  0
    0.6220    9.6020   20.8790 C   0  0  0  0  0  0  0  0  0  0  0  0
   -0.2970   12.6160   19.5930 H   0  0  0  0  0  0  0  0  0  0  0  0
    0.6720   11.5210   17.5950 H   0  0  0  0  0  0  0  0  0  0  0  0
    0.6290    9.0390   21.8070 H   0  0  0  0  0  0  0  0  0  0  0  0
    1.7210    7.8090   19.5900 N   0  0  0  0  0  0  0  0  0  0  0  0
    2.6680    7.3770   18.6880 C   0  0  0  0  0  0  0  0  0  0  0  0
    3.1880    8.0850   17.8310 O   0  0  0  0  0  0  0  0  0  0  0  0
    1.3890    7.1930   20.3160 H   0  0  0  0  0  0  0  0  0  0  0  0
    3.0470    5.9520   18.8240 C   0  0  0  0  0  0  0  0  0  0  0  0
    4.2670    5.4590   19.2560 C   0  0  0  0  0  0  0  0  0  0  0  0
    4.2660    3.7460   19.2710 S   0  0  0  0  0  0  0  0  0  0  0  0
    2.6340    3.7410   18.7170 C   0  0  0  0  0  0  0  0  0  0  0  0
    2.1220    4.9460   18.5280 N   0  0  0  0  0  0  0  0  0  0  0  0
    5.1500    5.9940   19.5760 H   0  0  0  0  0  0  0  0  0  0  0  0
    1.9380    2.4260   18.4990 C   0  0  0  0  0  0  0  0  0  0  0  0
    2.1720    1.5480   19.5130 F   0  0  0  0  0  0  0  0  0  0  0  0
    0.5870    2.5480   18.4000 F   0  0  0  0  0  0  0  0  0  0  0  0
    2.3530    1.8130   17.3560 F   0  0  0  0  0  0  0  0  0  0  0  0
   -0.4970   11.4800   22.1550 C   0  0  2  0  0  0  0  0  0  0  0  0
    0.2870   12.0870   22.6240 H   0  0  0  0  0  0  0  0  0  0  0  0
   -0.9100   10.3960   23.1560 C   0  0  0  0  0  0  0  0  0  0  0  0
   -1.9080   10.0110   22.9140 H   0  0  0  0  0  0  0  0  0  0  0  0
   -0.2230    9.5430   23.1320 H   0  0  0  0  0  0  0  0  0  0  0  0
   -0.9420   10.7630   24.1870 H   0  0  0  0  0  0  0  0  0  0  0  0
   -1.9190   12.5710   21.7540 S   0  0  0  0  0  0  0  0  0  0  0  0
   -2.0100   13.5540   23.1710 C   0  0  0  0  0  0  0  0  0  0  0  0
   -1.0760   14.3430   23.6500 N   0  0  0  0  0  0  0  0  0  0  0  0
   -1.5690   14.9290   24.7940 N   0  0  0  0  0  0  0  0  0  0  0  0
   -2.7900   14.4810   24.9750 C   0  0  0  0  0  0  0  0  0  0  0  0
   -3.1100   13.6110   23.9770 N   0  0  0  0  0  0  0  0  0  0  0  0
   -3.4530   14.7510   25.7850 H   0  0  0  0  0  0  0  0  0  0  0  0
   -4.3610   12.9170   23.8300 C   0  0  0  0  0  0  0  0  0  0  0  0
   -5.1830   13.5840   24.1030 H   0  0  0  0  0  0  0  0  0  0  0  0
   -4.3620   12.0490   24.4940 H   0  0  0  0  0  0  0  0  0  0  0  0
   -4.4730   12.6080   22.7880 H   0  0  0  0  0  0  0  0  0  0  0  0
  1  6  1  0  0  0  0
  1 24  1  0  0  0  0
  2  1  2  0  0  0  0
  3  2  1  0  0  0  0
  4  3  2  0  0  0  0
  4  5  1  0  0  0  0
  5  6  2  0  0  0  0
  6  9  1  0  0  0  0
  7  2  1  0  0  0  0
  8  3  1  0  0  0  0
 10  5  1  0  0  0  0
 10 13  1  0  0  0  0
 11 14  1  0  0  0  0
 11 10  1  0  0  0  0
 12 11  2  0  0  0  0
 14 15  2  0  0  0  0
 15 16  1  0  0  0  0
 15 19  1  0  0  0  0
 17 16  1  0  0  0  0
 18 17  2  0  0  0  0
 18 14  1  0  0  0  0
 20 17  1  0  0  0  0
 20 21  1  0  0  0  0
 22 20  1  0  0  0  0
 23 20  1  0  0  0  0
 24 25  1  1  0  0  0
 24 26  1  0  0  0  0
 26 29  1  0  0  0  0
 27 26  1  0  0  0  0
 28 26  1  0  0  0  0
 30 24  1  0  0  0  0
 30 31  1  0  0  0  0
 31 32  2  0  0  0  0
 31 35  1  0  0  0  0
 32 33  1  0  0  0  0
 33 34  2  0  0  0  0
 34 36  1  0  0  0  0
 35 34  1  0  0  0  0
 37 35  1  0  0  0  0
 37 38  1  0  0  0  0
 37 39  1  0  0  0  0
 40 37  1  0  0  0  0
M  END
>  <MODEL>
21

>  <REMARK>
 VINA RESULT:    -6.352      3.051      4.394
 INTER + INTRA:          -9.531
 INTER:                  -9.418
 INTRA:                  -0.113
 UNBOUND:                -0.579
  Name = 
  8 active torsions:
  status: ('A' for Active; 'I' for Inactive)
    1  A    between atoms: C_1  and  C_2
    2  A    between atoms: C_2  and  C_3
    3  A    between atoms: C_2  and  S_21
    4  A    between atoms: C_7  and  N_9
    5  A    between atoms: C_10  and  C_11
    6  A    between atoms: C_14  and  C_15
    7  A    between atoms: S_21  and  C_22
    8  A    between atoms: N_26  and  C_27
                            x       y       z     vdW  Elec       q    Type
                         _______ _______ _______ _____ _____    ______ ____

>  <TORSDO>
F 8

$$$$
=
 OpenBabel07192307433D

 40 42  0  0  1  0  0  0  0  0999 V2000
   -0.3670   10.2420   20.0170 C   0  0  0  0  0  0  0  0  0  0  0  0
   -0.3690   10.1760   21.4130 C   0  0  0  0  0  0  0  0  0  0  0  0
    0.5340    9.3350   22.0390 C   0  0  0  0  0  0  0  0  0  0  0  0
    1.4230    8.5620   21.3810 N   0  0  0  0  0  0  0  0  0  0  0  0
    1.4180    8.6180   20.0330 C   0  0  0  0  0  0  0  0  0  0  0  0
    0.5470    9.4320   19.3220 C   0  0  0  0  0  0  0  0  0  0  0  0
   -1.0620   10.7570   22.0120 H   0  0  0  0  0  0  0  0  0  0  0  0
    0.5640    9.2570   23.1220 H   0  0  0  0  0  0  0  0  0  0  0  0
    0.5540    9.4560   18.2370 H   0  0  0  0  0  0  0  0  0  0  0  0
    2.3660    7.7710   19.4610 N   0  0  0  0  0  0  0  0  0  0  0  0
    2.4940    6.4070   19.5990 C   0  0  0  0  0  0  0  0  0  0  0  0
    1.7390    5.7000   20.2590 O   0  0  0  0  0  0  0  0  0  0  0  0
    2.9780    8.2810   18.8430 H   0  0  0  0  0  0  0  0  0  0  0  0
    3.6360    5.8160   18.8660 C   0  0  0  0  0  0  0  0  0  0  0  0
    4.5670    4.9210   19.3670 C   0  0  0  0  0  0  0  0  0  0  0  0
    5.7110    4.4890   18.1670 S   0  0  0  0  0  0  0  0  0  0  0  0
    4.9030    5.5020   17.0310 C   0  0  0  0  0  0  0  0  0  0  0  0
    3.8450    6.1290   17.5190 N   0  0  0  0  0  0  0  0  0  0  0  0
    4.6380    4.4840   20.3530 H   0  0  0  0  0  0  0  0  0  0  0  0
    5.4330    5.5970   15.6260 C   0  0  0  0  0  0  0  0  0  0  0  0
    5.0030    6.7210   14.9910 F   0  0  0  0  0  0  0  0  0  0  0  0
    6.7910    5.6190   15.5700 F   0  0  0  0  0  0  0  0  0  0  0  0
    5.0340    4.5440   14.8580 F   0  0  0  0  0  0  0  0  0  0  0  0
   -1.3310   11.1270   19.2400 C   0  0  2  0  0  0  0  0  0  0  0  0
   -2.0750   11.5180   19.9450 H   0  0  0  0  0  0  0  0  0  0  0  0
   -2.0810   10.3540   18.1500 C   0  0  0  0  0  0  0  0  0  0  0  0
   -1.3730    9.8990   17.4470 H   0  0  0  0  0  0  0  0  0  0  0  0
   -2.6800    9.5400   18.5730 H   0  0  0  0  0  0  0  0  0  0  0  0
   -2.7560   10.9910   17.5690 H   0  0  0  0  0  0  0  0  0  0  0  0
   -0.4110   12.5430   18.5160 S   0  0  0  0  0  0  0  0  0  0  0  0
    0.1890   13.3240   19.9350 C   0  0  0  0  0  0  0  0  0  0  0  0
    1.4260   13.3300   20.3740 N   0  0  0  0  0  0  0  0  0  0  0  0
    1.4550   14.0670   21.5360 N   0  0  0  0  0  0  0  0  0  0  0  0
    0.2330   14.4900   21.7680 C   0  0  0  0  0  0  0  0  0  0  0  0
   -0.5990   14.0450   20.7850 N   0  0  0  0  0  0  0  0  0  0  0  0
   -0.0810   15.0980   22.6050 H   0  0  0  0  0  0  0  0  0  0  0  0
   -2.0100   14.3050   20.6910 C   0  0  0  0  0  0  0  0  0  0  0  0
   -2.2430   15.2420   21.2050 H   0  0  0  0  0  0  0  0  0  0  0  0
   -2.5520   13.4840   21.1680 H   0  0  0  0  0  0  0  0  0  0  0  0
   -2.2830   14.3900   19.6360 H   0  0  0  0  0  0  0  0  0  0  0  0
  1  2  1  0  0  0  0
  2  7  1  0  0  0  0
  2  3  2  0  0  0  0
  3  8  1  0  0  0  0
  4  3  1  0  0  0  0
  5  4  2  0  0  0  0
  6  1  2  0  0  0  0
  6  5  1  0  0  0  0
  9  6  1  0  0  0  0
 10 11  1  0  0  0  0
 10  5  1  0  0  0  0
 11 12  2  0  0  0  0
 13 10  1  0  0  0  0
 14 15  2  0  0  0  0
 14 11  1  0  0  0  0
 15 19  1  0  0  0  0
 16 15  1  0  0  0  0
 17 18  2  0  0  0  0
 17 16  1  0  0  0  0
 18 14  1  0  0  0  0
 20 17  1  0  0  0  0
 21 20  1  0  0  0  0
 22 20  1  0  0  0  0
 23 20  1  0  0  0  0
 24 25  1  1  0  0  0
 24  1  1  0  0  0  0
 26 28  1  0  0  0  0
 26 24  1  0  0  0  0
 27 26  1  0  0  0  0
 29 26  1  0  0  0  0
 30 24  1  0  0  0  0
 30 31  1  0  0  0  0
 31 32  2  0  0  0  0
 31 35  1  0  0  0  0
 32 33  1  0  0  0  0
 33 34  2  0  0  0  0
 34 36  1  0  0  0  0
 35 34  1  0  0  0  0
 37 35  1  0  0  0  0
 37 39  1  0  0  0  0
 37 38  1  0  0  0  0
 40 37  1  0  0  0  0
M  END
>  <MODEL>
22

>  <REMARK>
 VINA RESULT:    -6.289      3.156      4.145
 INTER + INTRA:          -9.441
 INTER:                  -8.859
 INTRA:                  -0.582
 UNBOUND:                -0.579
  Name = 
  8 active torsions:
  status: ('A' for Active; 'I' for Inactive)
    1  A    between atoms: C_1  and  C_2
    2  A    between atoms: C_2  and  C_3
    3  A    between atoms: C_2  and  S_21
    4  A    between atoms: C_7  and  N_9
    5  A    between atoms: C_10  and  C_11
    6  A    between atoms: C_14  and  C_15
    7  A    between atoms: S_21  and  C_22
    8  A    between atoms: N_26  and  C_27
                            x       y       z     vdW  Elec       q    Type
                         _______ _______ _______ _____ _____    ______ ____

>  <TORSDO>
F 8

$$$$
=
 OpenBabel07192307433D

 40 42  0  0  1  0  0  0  0  0999 V2000
    1.7260    7.7270   19.9770 C   0  0  0  0  0  0  0  0  0  0  0  0
    1.4750    6.6690   20.8550 C   0  0  0  0  0  0  0  0  0  0  0  0
    2.0780    5.4480   20.6120 C   0  0  0  0  0  0  0  0  0  0  0  0
    2.8980    5.2070   19.5680 N   0  0  0  0  0  0  0  0  0  0  0  0
    3.1320    6.2260   18.7140 C   0  0  0  0  0  0  0  0  0  0  0  0
    2.5690    7.4840   18.8790 C   0  0  0  0  0  0  0  0  0  0  0  0
    0.8170    6.7800   21.7100 H   0  0  0  0  0  0  0  0  0  0  0  0
    1.9080    4.6020   21.2720 H   0  0  0  0  0  0  0  0  0  0  0  0
    2.7640    8.2880   18.1760 H   0  0  0  0  0  0  0  0  0  0  0  0
    3.9800    5.8620   17.6700 N   0  0  0  0  0  0  0  0  0  0  0  0
    4.0760    4.6490   17.0240 C   0  0  0  0  0  0  0  0  0  0  0  0
    3.3750    3.6730   17.2700 O   0  0  0  0  0  0  0  0  0  0  0  0
    4.5370    6.6470   17.3680 H   0  0  0  0  0  0  0  0  0  0  0  0
    5.1080    4.5930   15.9640 C   0  0  0  0  0  0  0  0  0  0  0  0
    6.4170    5.0370   16.0590 C   0  0  0  0  0  0  0  0  0  0  0  0
    7.2650    4.7660   14.5950 S   0  0  0  0  0  0  0  0  0  0  0  0
    5.8530    4.0560   13.9080 C   0  0  0  0  0  0  0  0  0  0  0  0
    4.8090    4.0270   14.7200 N   0  0  0  0  0  0  0  0  0  0  0  0
    6.9300    5.4870   16.8970 H   0  0  0  0  0  0  0  0  0  0  0  0
    5.9040    3.5420   12.4950 C   0  0  0  0  0  0  0  0  0  0  0  0
    6.8930    4.1340   11.7700 F   0  0  0  0  0  0  0  0  0  0  0  0
    6.1240    2.2020   12.4230 F   0  0  0  0  0  0  0  0  0  0  0  0
    4.7420    3.7770   11.8240 F   0  0  0  0  0  0  0  0  0  0  0  0
    1.0980    9.1030   20.1540 C   0  0  2  0  0  0  0  0  0  0  0  0
    1.8720    9.7800   20.5370 H   0  0  0  0  0  0  0  0  0  0  0  0
   -0.0550    9.0900   21.1620 C   0  0  0  0  0  0  0  0  0  0  0  0
    0.3320    9.1320   22.1880 H   0  0  0  0  0  0  0  0  0  0  0  0
   -0.7140    9.9560   21.0320 H   0  0  0  0  0  0  0  0  0  0  0  0
   -0.6750    8.1910   21.0830 H   0  0  0  0  0  0  0  0  0  0  0  0
    0.5300    9.7280   18.5240 S   0  0  0  0  0  0  0  0  0  0  0  0
   -0.1870   11.2370   18.9640 C   0  0  0  0  0  0  0  0  0  0  0  0
   -1.4550   11.4710   19.2090 N   0  0  0  0  0  0  0  0  0  0  0  0
   -1.5830   12.8070   19.5160 N   0  0  0  0  0  0  0  0  0  0  0  0
   -0.3860   13.3450   19.4520 C   0  0  0  0  0  0  0  0  0  0  0  0
    0.5250   12.3930   19.1070 N   0  0  0  0  0  0  0  0  0  0  0  0
   -0.1440   14.3810   19.6410 H   0  0  0  0  0  0  0  0  0  0  0  0
    1.9380   12.5980   18.9400 C   0  0  0  0  0  0  0  0  0  0  0  0
    2.2240   13.5530   19.3880 H   0  0  0  0  0  0  0  0  0  0  0  0
    2.1680   12.6140   17.8720 H   0  0  0  0  0  0  0  0  0  0  0  0
    2.4740   11.7860   19.4400 H   0  0  0  0  0  0  0  0  0  0  0  0
  1 24  1  0  0  0  0
  1  2  1  0  0  0  0
  2  7  1  0  0  0  0
  3  2  2  0  0  0  0
  3  8  1  0  0  0  0
  4  3  1  0  0  0  0
  5  6  1  0  0  0  0
  5  4  2  0  0  0  0
  6  1  2  0  0  0  0
  9  6  1  0  0  0  0
 10  5  1  0  0  0  0
 11 12  2  0  0  0  0
 11 10  1  0  0  0  0
 13 10  1  0  0  0  0
 14 15  2  0  0  0  0
 14 11  1  0  0  0  0
 15 19  1  0  0  0  0
 16 15  1  0  0  0  0
 17 16  1  0  0  0  0
 17 18  2  0  0  0  0
 18 14  1  0  0  0  0
 20 17  1  0  0  0  0
 21 20  1  0  0  0  0
 22 20  1  0  0  0  0
 23 20  1  0  0  0  0
 24 25  1  1  0  0  0
 24 26  1  0  0  0  0
 26 27  1  0  0  0  0
 28 26  1  0  0  0  0
 29 26  1  0  0  0  0
 30 31  1  0  0  0  0
 30 24  1  0  0  0  0
 31 35  1  0  0  0  0
 31 32  2  0  0  0  0
 32 33  1  0  0  0  0
 34 33  2  0  0  0  0
 34 36  1  0  0  0  0
 35 34  1  0  0  0  0
 37 35  1  0  0  0  0
 37 38  1  0  0  0  0
 37 40  1  0  0  0  0
 39 37  1  0  0  0  0
M  END
>  <MODEL>
23

>  <REMARK>
 VINA RESULT:    -6.287      3.788      4.980
 INTER + INTRA:          -9.439
 INTER:                  -9.292
 INTRA:                  -0.148
 UNBOUND:                -0.579
  Name = 
  8 active torsions:
  status: ('A' for Active; 'I' for Inactive)
    1  A    between atoms: C_1  and  C_2
    2  A    between atoms: C_2  and  C_3
    3  A    between atoms: C_2  and  S_21
    4  A    between atoms: C_7  and  N_9
    5  A    between atoms: C_10  and  C_11
    6  A    between atoms: C_14  and  C_15
    7  A    between atoms: S_21  and  C_22
    8  A    between atoms: N_26  and  C_27
                            x       y       z     vdW  Elec       q    Type
                         _______ _______ _______ _____ _____    ______ ____

>  <TORSDO>
F 8

$$$$
=
 OpenBabel07192307433D

 40 42  0  0  1  0  0  0  0  0999 V2000
    2.0700    7.3360   19.2440 C   0  0  0  0  0  0  0  0  0  0  0  0
    2.4530    7.8980   18.0230 C   0  0  0  0  0  0  0  0  0  0  0  0
    2.1810    9.2350   17.7930 C   0  0  0  0  0  0  0  0  0  0  0  0
    1.5580   10.0400   18.6800 N   0  0  0  0  0  0  0  0  0  0  0  0
    1.1790    9.4940   19.8550 C   0  0  0  0  0  0  0  0  0  0  0  0
    1.4100    8.1620   20.1700 C   0  0  0  0  0  0  0  0  0  0  0  0
    2.9460    7.3130   17.2540 H   0  0  0  0  0  0  0  0  0  0  0  0
    2.4630    9.7080   16.8570 H   0  0  0  0  0  0  0  0  0  0  0  0
    1.0900    7.7420   21.1170 H   0  0  0  0  0  0  0  0  0  0  0  0
    0.5370   10.4110   20.6850 N   0  0  0  0  0  0  0  0  0  0  0  0
   -0.6950   11.0050   20.5180 C   0  0  0  0  0  0  0  0  0  0  0  0
   -1.4540   10.7820   19.5790 O   0  0  0  0  0  0  0  0  0  0  0  0
    1.0780   10.5840   21.5180 H   0  0  0  0  0  0  0  0  0  0  0  0
   -1.0710   11.9580   21.5860 C   0  0  0  0  0  0  0  0  0  0  0  0
   -0.3330   13.0450   22.0230 C   0  0  0  0  0  0  0  0  0  0  0  0
   -1.1530   13.8830   23.2730 S   0  0  0  0  0  0  0  0  0  0  0  0
   -2.4620   12.7670   23.1620 C   0  0  0  0  0  0  0  0  0  0  0  0
   -2.2950   11.8230   22.2510 N   0  0  0  0  0  0  0  0  0  0  0  0
    0.6260   13.4080   21.6780 H   0  0  0  0  0  0  0  0  0  0  0  0
   -3.6490   12.9390   24.0700 C   0  0  0  0  0  0  0  0  0  0  0  0
   -4.0130   11.7700   24.6640 F   0  0  0  0  0  0  0  0  0  0  0  0
   -3.4290   13.8280   25.0740 F   0  0  0  0  0  0  0  0  0  0  0  0
   -4.7460   13.3850   23.3950 F   0  0  0  0  0  0  0  0  0  0  0  0
    2.3140    5.8720   19.5820 C   0  0  2  0  0  0  0  0  0  0  0  0
    1.6870    5.2630   18.9200 H   0  0  0  0  0  0  0  0  0  0  0  0
    1.9320    5.5380   21.0280 C   0  0  0  0  0  0  0  0  0  0  0  0
    0.9160    5.8870   21.2470 H   0  0  0  0  0  0  0  0  0  0  0  0
    1.9460    4.4580   21.2090 H   0  0  0  0  0  0  0  0  0  0  0  0
    2.6020    6.0020   21.7590 H   0  0  0  0  0  0  0  0  0  0  0  0
    4.0750    5.4580   19.2620 S   0  0  0  0  0  0  0  0  0  0  0  0
    4.0090    3.7350   19.1560 C   0  0  0  0  0  0  0  0  0  0  0  0
    4.5410    2.8680   19.9850 N   0  0  0  0  0  0  0  0  0  0  0  0
    4.2500    1.6070   19.5170 N   0  0  0  0  0  0  0  0  0  0  0  0
    3.5450    1.7450   18.4170 C   0  0  0  0  0  0  0  0  0  0  0  0
    3.3690    3.0690   18.1510 N   0  0  0  0  0  0  0  0  0  0  0  0
    3.1570    0.9420   17.8060 H   0  0  0  0  0  0  0  0  0  0  0  0
    2.6480    3.6170   17.0340 C   0  0  0  0  0  0  0  0  0  0  0  0
    2.4930    4.6880   17.1880 H   0  0  0  0  0  0  0  0  0  0  0  0
    1.6800    3.1160   16.9600 H   0  0  0  0  0  0  0  0  0  0  0  0
    3.2350    3.4610   16.1240 H   0  0  0  0  0  0  0  0  0  0  0  0
  1 24  1  0  0  0  0
  1  6  1  0  0  0  0
  2  1  2  0  0  0  0
  3  2  1  0  0  0  0
  3  4  2  0  0  0  0
  4  5  1  0  0  0  0
  5  6  2  0  0  0  0
  5 10  1  0  0  0  0
  6  9  1  0  0  0  0
  7  2  1  0  0  0  0
  8  3  1  0  0  0  0
 10 13  1  0  0  0  0
 11 10  1  0  0  0  0
 11 14  1  0  0  0  0
 12 11  2  0  0  0  0
 14 15  2  0  0  0  0
 14 18  1  0  0  0  0
 15 16  1  0  0  0  0
 17 16  1  0  0  0  0
 17 20  1  0  0  0  0
 18 17  2  0  0  0  0
 19 15  1  0  0  0  0
 20 21  1  0  0  0  0
 20 22  1  0  0  0  0
 23 20  1  0  0  0  0
 24 25  1  6  0  0  0
 24 26  1  0  0  0  0
 26 28  1  0  0  0  0
 26 27  1  0  0  0  0
 26 29  1  0  0  0  0
 30 24  1  0  0  0  0
 31 30  1  0  0  0  0
 31 32  2  0  0  0  0
 33 32  1  0  0  0  0
 34 33  2  0  0  0  0
 35 34  1  0  0  0  0
 35 31  1  0  0  0  0
 36 34  1  0  0  0  0
 37 38  1  0  0  0  0
 37 35  1  0  0  0  0
 39 37  1  0  0  0  0
 40 37  1  0  0  0  0
M  END
>  <MODEL>
24

>  <REMARK>
 VINA RESULT:    -6.260      5.490      9.427
 INTER + INTRA:          -9.401
 INTER:                  -8.942
 INTRA:                  -0.459
 UNBOUND:                -0.579
  Name = 
  8 active torsions:
  status: ('A' for Active; 'I' for Inactive)
    1  A    between atoms: C_1  and  C_2
    2  A    between atoms: C_2  and  C_3
    3  A    between atoms: C_2  and  S_21
    4  A    between atoms: C_7  and  N_9
    5  A    between atoms: C_10  and  C_11
    6  A    between atoms: C_14  and  C_15
    7  A    between atoms: S_21  and  C_22
    8  A    between atoms: N_26  and  C_27
                            x       y       z     vdW  Elec       q    Type
                         _______ _______ _______ _____ _____    ______ ____

>  <TORSDO>
F 8

$$$$
=
 OpenBabel07192307433D

 40 42  0  0  1  0  0  0  0  0999 V2000
    3.0220    5.3990   18.7780 C   0  0  0  0  0  0  0  0  0  0  0  0
    2.4390    4.6030   19.7680 C   0  0  0  0  0  0  0  0  0  0  0  0
    1.6460    5.2100   20.7250 C   0  0  0  0  0  0  0  0  0  0  0  0
    1.3990    6.5360   20.7690 N   0  0  0  0  0  0  0  0  0  0  0  0
    1.9710    7.3060   19.8190 C   0  0  0  0  0  0  0  0  0  0  0  0
    2.7820    6.7830   18.8210 C   0  0  0  0  0  0  0  0  0  0  0  0
    2.6000    3.5310   19.8080 H   0  0  0  0  0  0  0  0  0  0  0  0
    1.1750    4.6260   21.5110 H   0  0  0  0  0  0  0  0  0  0  0  0
    3.2380    7.4210   18.0710 H   0  0  0  0  0  0  0  0  0  0  0  0
    1.6590    8.6560   19.9680 N   0  0  0  0  0  0  0  0  0  0  0  0
    1.1750    9.5350   19.0250 C   0  0  0  0  0  0  0  0  0  0  0  0
    0.9130    9.2360   17.8640 O   0  0  0  0  0  0  0  0  0  0  0  0
    1.7840    8.9510   20.9240 H   0  0  0  0  0  0  0  0  0  0  0  0
    0.9720   10.9170   19.5140 C   0  0  0  0  0  0  0  0  0  0  0  0
    0.2990   11.2960   20.6650 C   0  0  0  0  0  0  0  0  0  0  0  0
    0.3150   13.0000   20.8510 S   0  0  0  0  0  0  0  0  0  0  0  0
    1.2310   13.1510   19.3990 C   0  0  0  0  0  0  0  0  0  0  0  0
    1.5050   12.0000   18.8070 N   0  0  0  0  0  0  0  0  0  0  0  0
   -0.1850   10.6830   21.4110 H   0  0  0  0  0  0  0  0  0  0  0  0
    1.6360   14.5210   18.9280 C   0  0  0  0  0  0  0  0  0  0  0  0
    0.5690   15.2580   18.5160 F   0  0  0  0  0  0  0  0  0  0  0  0
    2.2590   15.2520   19.8900 F   0  0  0  0  0  0  0  0  0  0  0  0
    2.4950   14.4640   17.8720 F   0  0  0  0  0  0  0  0  0  0  0  0
    3.9200    4.8240   17.6910 C   0  0  2  0  0  0  0  0  0  0  0  0
    4.0520    5.5940   16.9200 H   0  0  0  0  0  0  0  0  0  0  0  0
    3.3060    3.5910   17.0220 C   0  0  0  0  0  0  0  0  0  0  0  0
    3.5250    2.6890   17.6050 H   0  0  0  0  0  0  0  0  0  0  0  0
    2.2160    3.6710   16.9520 H   0  0  0  0  0  0  0  0  0  0  0  0
    3.6890    3.4270   16.0090 H   0  0  0  0  0  0  0  0  0  0  0  0
    5.5640    4.4260   18.4060 S   0  0  0  0  0  0  0  0  0  0  0  0
    6.4450    5.8720   18.0680 C   0  0  0  0  0  0  0  0  0  0  0  0
    6.1610    6.7820   17.1660 N   0  0  0  0  0  0  0  0  0  0  0  0
    7.1290    7.7590   17.2360 N   0  0  0  0  0  0  0  0  0  0  0  0
    7.9720    7.4150   18.1820 C   0  0  0  0  0  0  0  0  0  0  0  0
    7.5820    6.2320   18.7330 N   0  0  0  0  0  0  0  0  0  0  0  0
    8.8470    7.9720   18.4880 H   0  0  0  0  0  0  0  0  0  0  0  0
    8.2510    5.5360   19.7990 C   0  0  0  0  0  0  0  0  0  0  0  0
    8.7490    4.6490   19.4000 H   0  0  0  0  0  0  0  0  0  0  0  0
    7.5090    5.2330   20.5420 H   0  0  0  0  0  0  0  0  0  0  0  0
    8.9940    6.2030   20.2430 H   0  0  0  0  0  0  0  0  0  0  0  0
  1  6  2  0  0  0  0
  1  2  1  0  0  0  0
  2  7  1  0  0  0  0
  2  3  2  0  0  0  0
  3  4  1  0  0  0  0
  3  8  1  0  0  0  0
  5 10  1  0  0  0  0
  5  4  2  0  0  0  0
  6  5  1  0  0  0  0
  9  6  1  0  0  0  0
 10 13  1  0  0  0  0
 11 14  1  0  0  0  0
 11 10  1  0  0  0  0
 12 11  2  0  0  0  0
 14 15  2  0  0  0  0
 15 16  1  0  0  0  0
 15 19  1  0  0  0  0
 17 16  1  0  0  0  0
 18 17  2  0  0  0  0
 18 14  1  0  0  0  0
 20 17  1  0  0  0  0
 20 22  1  0  0  0  0
 21 20  1  0  0  0  0
 23 20  1  0  0  0  0
 24 25  1  6  0  0  0
 24 30  1  0  0  0  0
 24  1  1  0  0  0  0
 26 27  1  0  0  0  0
 26 24  1  0  0  0  0
 28 26  1  0  0  0  0
 29 26  1  0  0  0  0
 31 30  1  0  0  0  0
 31 35  1  0  0  0  0
 32 33  1  0  0  0  0
 32 31  2  0  0  0  0
 33 34  2  0  0  0  0
 34 36  1  0  0  0  0
 34 35  1  0  0  0  0
 35 37  1  0  0  0  0
 37 40  1  0  0  0  0
 37 39  1  0  0  0  0
 38 37  1  0  0  0  0
M  END
>  <MODEL>
25

>  <REMARK>
 VINA RESULT:    -6.259      5.246      9.243
 INTER + INTRA:          -9.399
 INTER:                  -8.780
 INTRA:                  -0.620
 UNBOUND:                -0.579
  Name = 
  8 active torsions:
  status: ('A' for Active; 'I' for Inactive)
    1  A    between atoms: C_1  and  C_2
    2  A    between atoms: C_2  and  C_3
    3  A    between atoms: C_2  and  S_21
    4  A    between atoms: C_7  and  N_9
    5  A    between atoms: C_10  and  C_11
    6  A    between atoms: C_14  and  C_15
    7  A    between atoms: S_21  and  C_22
    8  A    between atoms: N_26  and  C_27
                            x       y       z     vdW  Elec       q    Type
                         _______ _______ _______ _____ _____    ______ ____

>  <TORSDO>
F 8

$$$$
=
 OpenBabel07192307433D

 40 42  0  0  1  0  0  0  0  0999 V2000
    0.3230   11.3680   21.0580 C   0  0  0  0  0  0  0  0  0  0  0  0
   -0.4580   11.4120   22.2160 C   0  0  0  0  0  0  0  0  0  0  0  0
   -0.6250   10.2510   22.9480 C   0  0  0  0  0  0  0  0  0  0  0  0
   -0.0810    9.0620   22.6100 N   0  0  0  0  0  0  0  0  0  0  0  0
    0.6640    9.0180   21.4860 C   0  0  0  0  0  0  0  0  0  0  0  0
    0.8840   10.1330   20.6900 C   0  0  0  0  0  0  0  0  0  0  0  0
   -0.9390   12.3260   22.5460 H   0  0  0  0  0  0  0  0  0  0  0  0
   -1.2240   10.2440   23.8540 H   0  0  0  0  0  0  0  0  0  0  0  0
    1.4810   10.0740   19.7850 H   0  0  0  0  0  0  0  0  0  0  0  0
    1.1640    7.7420   21.2280 N   0  0  0  0  0  0  0  0  0  0  0  0
    1.8790    7.3050   20.1360 C   0  0  0  0  0  0  0  0  0  0  0  0
    2.2190    8.0160   19.1950 O   0  0  0  0  0  0  0  0  0  0  0  0
    0.9830    7.1210   22.0010 H   0  0  0  0  0  0  0  0  0  0  0  0
    2.2410    5.8690   20.1680 C   0  0  0  0  0  0  0  0  0  0  0  0
    1.5830    4.8660   20.8600 C   0  0  0  0  0  0  0  0  0  0  0  0
    2.3370    3.3490   20.6060 S   0  0  0  0  0  0  0  0  0  0  0  0
    3.4950    4.0970   19.5720 C   0  0  0  0  0  0  0  0  0  0  0  0
    3.3320    5.4020   19.4280 N   0  0  0  0  0  0  0  0  0  0  0  0
    0.7020    4.9260   21.4850 H   0  0  0  0  0  0  0  0  0  0  0  0
    4.5610    3.2500   18.9330 C   0  0  0  0  0  0  0  0  0  0  0  0
    4.9330    2.2090   19.7270 F   0  0  0  0  0  0  0  0  0  0  0  0
    4.1740    2.7100   17.7470 F   0  0  0  0  0  0  0  0  0  0  0  0
    5.6940    3.9630   18.6790 F   0  0  0  0  0  0  0  0  0  0  0  0
    0.5530   12.5910   20.1800 C   0  0  2  0  0  0  0  0  0  0  0  0
    0.8740   12.2410   19.1910 H   0  0  0  0  0  0  0  0  0  0  0  0
    1.6520   13.5040   20.7330 C   0  0  0  0  0  0  0  0  0  0  0  0
    1.6400   13.4980   21.8300 H   0  0  0  0  0  0  0  0  0  0  0  0
    2.6480   13.1720   20.4210 H   0  0  0  0  0  0  0  0  0  0  0  0
    1.5370   14.5440   20.4110 H   0  0  0  0  0  0  0  0  0  0  0  0
   -1.0240   13.5120   19.9910 S   0  0  0  0  0  0  0  0  0  0  0  0
   -1.9210   12.4510   18.9650 C   0  0  0  0  0  0  0  0  0  0  0  0
   -1.4840   11.8240   17.8970 N   0  0  0  0  0  0  0  0  0  0  0  0
   -2.5310   11.0920   17.3830 N   0  0  0  0  0  0  0  0  0  0  0  0
   -3.5740   11.2930   18.1570 C   0  0  0  0  0  0  0  0  0  0  0  0
   -3.2350   12.1440   19.1660 N   0  0  0  0  0  0  0  0  0  0  0  0
   -4.5550   10.8600   18.0280 H   0  0  0  0  0  0  0  0  0  0  0  0
   -4.1080   12.6000   20.2140 C   0  0  0  0  0  0  0  0  0  0  0  0
   -4.9930   11.9590   20.2570 H   0  0  0  0  0  0  0  0  0  0  0  0
   -4.4130   13.6260   19.9970 H   0  0  0  0  0  0  0  0  0  0  0  0
   -3.5730   12.5470   21.1660 H   0  0  0  0  0  0  0  0  0  0  0  0
  1  2  1  0  0  0  0
  2  7  1  0  0  0  0
  2  3  2  0  0  0  0
  3  8  1  0  0  0  0
  4  3  1  0  0  0  0
  5  4  2  0  0  0  0
  6  1  2  0  0  0  0
  6  5  1  0  0  0  0
  9  6  1  0  0  0  0
 10  5  1  0  0  0  0
 10 13  1  0  0  0  0
 11 14  1  0  0  0  0
 11 10  1  0  0  0  0
 12 11  2  0  0  0  0
 14 15  2  0  0  0  0
 15 19  1  0  0  0  0
 16 15  1  0  0  0  0
 17 16  1  0  0  0  0
 18 17  2  0  0  0  0
 18 14  1  0  0  0  0
 20 17  1  0  0  0  0
 20 21  1  0  0  0  0
 22 20  1  0  0  0  0
 23 20  1  0  0  0  0
 24 25  1  6  0  0  0
 24 26  1  0  0  0  0
 24  1  1  0  0  0  0
 26 27  1  0  0  0  0
 28 26  1  0  0  0  0
 29 26  1  0  0  0  0
 30 24  1  0  0  0  0
 31 35  1  0  0  0  0
 31 30  1  0  0  0  0
 32 31  2  0  0  0  0
 33 32  1  0  0  0  0
 33 34  2  0  0  0  0
 34 35  1  0  0  0  0
 35 37  1  0  0  0  0
 36 34  1  0  0  0  0
 37 38  1  0  0  0  0
 37 40  1  0  0  0  0
 39 37  1  0  0  0  0
M  END
>  <MODEL>
26

>  <REMARK>
 VINA RESULT:    -6.258      1.914      2.250
 INTER + INTRA:          -9.398
 INTER:                  -9.073
 INTRA:                  -0.326
 UNBOUND:                -0.579
  Name = 
  8 active torsions:
  status: ('A' for Active; 'I' for Inactive)
    1  A    between atoms: C_1  and  C_2
    2  A    between atoms: C_2  and  C_3
    3  A    between atoms: C_2  and  S_21
    4  A    between atoms: C_7  and  N_9
    5  A    between atoms: C_10  and  C_11
    6  A    between atoms: C_14  and  C_15
    7  A    between atoms: S_21  and  C_22
    8  A    between atoms: N_26  and  C_27
                            x       y       z     vdW  Elec       q    Type
                         _______ _______ _______ _____ _____    ______ ____

>  <TORSDO>
F 8

$$$$
=
 OpenBabel07192307433D

 40 42  0  0  1  0  0  0  0  0999 V2000
    2.8040    5.0940   18.8330 C   0  0  0  0  0  0  0  0  0  0  0  0
    2.5200    4.3510   19.9810 C   0  0  0  0  0  0  0  0  0  0  0  0
    1.9400    4.9940   21.0600 C   0  0  0  0  0  0  0  0  0  0  0  0
    1.6330    6.3080   21.0790 N   0  0  0  0  0  0  0  0  0  0  0  0
    1.9170    7.0270   19.9730 C   0  0  0  0  0  0  0  0  0  0  0  0
    2.4990    6.4660   18.8440 C   0  0  0  0  0  0  0  0  0  0  0  0
    2.7490    3.2930   20.0490 H   0  0  0  0  0  0  0  0  0  0  0  0
    1.7030    4.4510   21.9710 H   0  0  0  0  0  0  0  0  0  0  0  0
    2.7270    7.0650   17.9680 H   0  0  0  0  0  0  0  0  0  0  0  0
    1.5700    8.3710   20.1070 N   0  0  0  0  0  0  0  0  0  0  0  0
    0.5320    8.9220   20.8250 C   0  0  0  0  0  0  0  0  0  0  0  0
   -0.2630    8.2790   21.5040 O   0  0  0  0  0  0  0  0  0  0  0  0
    2.2310    8.9640   19.6290 H   0  0  0  0  0  0  0  0  0  0  0  0
    0.4320   10.3960   20.7350 C   0  0  0  0  0  0  0  0  0  0  0  0
    0.0620   11.2630   21.7500 C   0  0  0  0  0  0  0  0  0  0  0  0
    0.0930   12.8890   21.2100 S   0  0  0  0  0  0  0  0  0  0  0  0
    0.6130   12.3630   19.6530 C   0  0  0  0  0  0  0  0  0  0  0  0
    0.7510   11.0520   19.5420 N   0  0  0  0  0  0  0  0  0  0  0  0
   -0.2080   11.0470   22.7740 H   0  0  0  0  0  0  0  0  0  0  0  0
    0.8630   13.3860   18.5790 C   0  0  0  0  0  0  0  0  0  0  0  0
    1.8880   13.0280   17.7590 F   0  0  0  0  0  0  0  0  0  0  0  0
   -0.2160   13.5930   17.7790 F   0  0  0  0  0  0  0  0  0  0  0  0
    1.1950   14.6010   19.1000 F   0  0  0  0  0  0  0  0  0  0  0  0
    3.4520    4.4780   17.6000 C   0  0  2  0  0  0  0  0  0  0  0  0
    3.4330    5.2270   16.7990 H   0  0  0  0  0  0  0  0  0  0  0  0
    2.6980    3.2410   17.1030 C   0  0  0  0  0  0  0  0  0  0  0  0
    1.7970    3.0730   17.7050 H   0  0  0  0  0  0  0  0  0  0  0  0
    2.3720    3.3580   16.0640 H   0  0  0  0  0  0  0  0  0  0  0  0
    3.3010    2.3290   17.1570 H   0  0  0  0  0  0  0  0  0  0  0  0
    5.2030    4.0660   17.9740 S   0  0  0  0  0  0  0  0  0  0  0  0
    5.9450    4.2870   16.4300 C   0  0  0  0  0  0  0  0  0  0  0  0
    5.8080    3.5280   15.3680 N   0  0  0  0  0  0  0  0  0  0  0  0
    6.5800    4.0680   14.3640 N   0  0  0  0  0  0  0  0  0  0  0  0
    7.1610    5.1430   14.8450 C   0  0  0  0  0  0  0  0  0  0  0  0
    6.7900    5.3200   16.1440 N   0  0  0  0  0  0  0  0  0  0  0  0
    7.8320    5.7980   14.3070 H   0  0  0  0  0  0  0  0  0  0  0  0
    7.2170    6.3890   17.0060 C   0  0  0  0  0  0  0  0  0  0  0  0
    7.3260    6.0140   18.0270 H   0  0  0  0  0  0  0  0  0  0  0  0
    6.4630    7.1800   16.9860 H   0  0  0  0  0  0  0  0  0  0  0  0
    8.1810    6.7640   16.6510 H   0  0  0  0  0  0  0  0  0  0  0  0
  1  6  2  0  0  0  0
  1  2  1  0  0  0  0
  2  7  1  0  0  0  0
  2  3  2  0  0  0  0
  3  4  1  0  0  0  0
  3  8  1  0  0  0  0
  5 10  1  0  0  0  0
  5  4  2  0  0  0  0
  6  5  1  0  0  0  0
  9  6  1  0  0  0  0
 10 11  1  0  0  0  0
 11 12  2  0  0  0  0
 13 10  1  0  0  0  0
 14 11  1  0  0  0  0
 14 15  2  0  0  0  0
 15 19  1  0  0  0  0
 16 15  1  0  0  0  0
 17 16  1  0  0  0  0
 18 17  2  0  0  0  0
 18 14  1  0  0  0  0
 20 23  1  0  0  0  0
 20 17  1  0  0  0  0
 21 20  1  0  0  0  0
 22 20  1  0  0  0  0
 24 25  1  6  0  0  0
 24 30  1  0  0  0  0
 24  1  1  0  0  0  0
 26 29  1  0  0  0  0
 26 24  1  0  0  0  0
 26 27  1  0  0  0  0
 28 26  1  0  0  0  0
 31 30  1  0  0  0  0
 32 31  2  0  0  0  0
 33 34  2  0  0  0  0
 33 32  1  0  0  0  0
 34 35  1  0  0  0  0
 35 31  1  0  0  0  0
 35 37  1  0  0  0  0
 36 34  1  0  0  0  0
 37 38  1  0  0  0  0
 39 37  1  0  0  0  0
 40 37  1  0  0  0  0
M  END
>  <MODEL>
27

>  <REMARK>
 VINA RESULT:    -6.207      4.867      9.027
 INTER + INTRA:          -9.326
 INTER:                  -9.179
 INTRA:                  -0.147
 UNBOUND:                -0.579
  Name = 
  8 active torsions:
  status: ('A' for Active; 'I' for Inactive)
    1  A    between atoms: C_1  and  C_2
    2  A    between atoms: C_2  and  C_3
    3  A    between atoms: C_2  and  S_21
    4  A    between atoms: C_7  and  N_9
    5  A    between atoms: C_10  and  C_11
    6  A    between atoms: C_14  and  C_15
    7  A    between atoms: S_21  and  C_22
    8  A    between atoms: N_26  and  C_27
                            x       y       z     vdW  Elec       q    Type
                         _______ _______ _______ _____ _____    ______ ____

>  <TORSDO>
F 8

$$$$
=
 OpenBabel07192307433D

 40 42  0  0  1  0  0  0  0  0999 V2000
   -0.3200   10.2720   20.6740 C   0  0  0  0  0  0  0  0  0  0  0  0
   -0.1140   10.2730   22.0560 C   0  0  0  0  0  0  0  0  0  0  0  0
    0.7940    9.3780   22.5910 C   0  0  0  0  0  0  0  0  0  0  0  0
    1.4980    8.4890   21.8580 N   0  0  0  0  0  0  0  0  0  0  0  0
    1.2900    8.4820   20.5250 C   0  0  0  0  0  0  0  0  0  0  0  0
    0.3980    9.3430   19.9020 C   0  0  0  0  0  0  0  0  0  0  0  0
   -0.6510   10.9480   22.7130 H   0  0  0  0  0  0  0  0  0  0  0  0
    0.9830    9.3480   23.6600 H   0  0  0  0  0  0  0  0  0  0  0  0
    0.2400    9.3150   18.8290 H   0  0  0  0  0  0  0  0  0  0  0  0
    2.0580    7.5190   19.8720 N   0  0  0  0  0  0  0  0  0  0  0  0
    2.6340    7.5830   18.6220 C   0  0  0  0  0  0  0  0  0  0  0  0
    2.5730    8.5550   17.8760 O   0  0  0  0  0  0  0  0  0  0  0  0
    2.2100    6.7170   20.4630 H   0  0  0  0  0  0  0  0  0  0  0  0
    3.3730    6.3650   18.2190 C   0  0  0  0  0  0  0  0  0  0  0  0
    3.3010    5.1180   18.8190 C   0  0  0  0  0  0  0  0  0  0  0  0
    4.3180    3.9930   18.0190 S   0  0  0  0  0  0  0  0  0  0  0  0
    4.7930    5.2160   16.9010 C   0  0  0  0  0  0  0  0  0  0  0  0
    4.2310    6.3950   17.1150 N   0  0  0  0  0  0  0  0  0  0  0  0
    2.7080    4.7940   19.6620 H   0  0  0  0  0  0  0  0  0  0  0  0
    5.7690    4.8720   15.8100 C   0  0  0  0  0  0  0  0  0  0  0  0
    5.3590    5.3260   14.5940 F   0  0  0  0  0  0  0  0  0  0  0  0
    7.0070    5.3940   16.0180 F   0  0  0  0  0  0  0  0  0  0  0  0
    5.9360    3.5260   15.6810 F   0  0  0  0  0  0  0  0  0  0  0  0
   -1.3080   11.2110   19.9940 C   0  0  2  0  0  0  0  0  0  0  0  0
   -2.3150   10.7980   20.1300 H   0  0  0  0  0  0  0  0  0  0  0  0
   -1.0520   11.3350   18.4890 C   0  0  0  0  0  0  0  0  0  0  0  0
   -1.8320   11.9430   18.0150 H   0  0  0  0  0  0  0  0  0  0  0  0
   -0.0940   11.8240   18.2820 H   0  0  0  0  0  0  0  0  0  0  0  0
   -1.0410   10.3640   17.9820 H   0  0  0  0  0  0  0  0  0  0  0  0
   -1.2390   12.8590   20.8030 S   0  0  0  0  0  0  0  0  0  0  0  0
   -2.5940   12.7750   21.8710 C   0  0  0  0  0  0  0  0  0  0  0  0
   -2.5690   12.6120   23.1730 N   0  0  0  0  0  0  0  0  0  0  0  0
   -3.8710   12.5970   23.6190 N   0  0  0  0  0  0  0  0  0  0  0  0
   -4.6500   12.7550   22.5730 C   0  0  0  0  0  0  0  0  0  0  0  0
   -3.8890   12.8700   21.4490 N   0  0  0  0  0  0  0  0  0  0  0  0
   -5.7310   12.7900   22.5850 H   0  0  0  0  0  0  0  0  0  0  0  0
   -4.3810   13.0580   20.1120 C   0  0  0  0  0  0  0  0  0  0  0  0
   -5.3670   12.5940   20.0170 H   0  0  0  0  0  0  0  0  0  0  0  0
   -3.6880   12.5860   19.4120 H   0  0  0  0  0  0  0  0  0  0  0  0
   -4.4620   14.1300   19.9130 H   0  0  0  0  0  0  0  0  0  0  0  0
  1  2  1  0  0  0  0
  2  3  2  0  0  0  0
  2  7  1  0  0  0  0
  3  8  1  0  0  0  0
  4  3  1  0  0  0  0
  5  4  2  0  0  0  0
  6  5  1  0  0  0  0
  6  1  2  0  0  0  0
  9  6  1  0  0  0  0
 10 13  1  0  0  0  0
 10  5  1  0  0  0  0
 11 10  1  0  0  0  0
 12 11  2  0  0  0  0
 14 11  1  0  0  0  0
 14 15  2  0  0  0  0
 15 19  1  0  0  0  0
 16 15  1  0  0  0  0
 17 18  2  0  0  0  0
 17 16  1  0  0  0  0
 18 14  1  0  0  0  0
 20 22  1  0  0  0  0
 20 17  1  0  0  0  0
 21 20  1  0  0  0  0
 23 20  1  0  0  0  0
 24 25  1  1  0  0  0
 24  1  1  0  0  0  0
 24 30  1  0  0  0  0
 26 24  1  0  0  0  0
 27 26  1  0  0  0  0
 28 26  1  0  0  0  0
 29 26  1  0  0  0  0
 30 31  1  0  0  0  0
 31 32  2  0  0  0  0
 32 33  1  0  0  0  0
 34 36  1  0  0  0  0
 34 33  2  0  0  0  0
 35 31  1  0  0  0  0
 35 34  1  0  0  0  0
 37 35  1  0  0  0  0
 38 37  1  0  0  0  0
 39 37  1  0  0  0  0
 40 37  1  0  0  0  0
M  END
>  <MODEL>
28

>  <REMARK>
 VINA RESULT:    -6.186      3.177      3.913
 INTER + INTRA:          -9.296
 INTER:                  -8.979
 INTRA:                  -0.318
 UNBOUND:                -0.579
  Name = 
  8 active torsions:
  status: ('A' for Active; 'I' for Inactive)
    1  A    between atoms: C_1  and  C_2
    2  A    between atoms: C_2  and  C_3
    3  A    between atoms: C_2  and  S_21
    4  A    between atoms: C_7  and  N_9
    5  A    between atoms: C_10  and  C_11
    6  A    between atoms: C_14  and  C_15
    7  A    between atoms: S_21  and  C_22
    8  A    between atoms: N_26  and  C_27
                            x       y       z     vdW  Elec       q    Type
                         _______ _______ _______ _____ _____    ______ ____

>  <TORSDO>
F 8

$$$$
=
 OpenBabel07192307433D

 40 42  0  0  1  0  0  0  0  0999 V2000
    2.1200    7.3020   19.1330 C   0  0  0  0  0  0  0  0  0  0  0  0
    2.4990    7.8860   17.9220 C   0  0  0  0  0  0  0  0  0  0  0  0
    2.2100    9.2230   17.7110 C   0  0  0  0  0  0  0  0  0  0  0  0
    1.5740   10.0070   18.6070 N   0  0  0  0  0  0  0  0  0  0  0  0
    1.2000    9.4390   19.7730 C   0  0  0  0  0  0  0  0  0  0  0  0
    1.4470    8.1060   20.0690 C   0  0  0  0  0  0  0  0  0  0  0  0
    3.0020    7.3190   17.1460 H   0  0  0  0  0  0  0  0  0  0  0  0
    2.4880    9.7130   16.7820 H   0  0  0  0  0  0  0  0  0  0  0  0
    1.1300    7.6680   21.0100 H   0  0  0  0  0  0  0  0  0  0  0  0
    0.5430   10.3360   20.6140 N   0  0  0  0  0  0  0  0  0  0  0  0
   -0.6860   10.9320   20.4420 C   0  0  0  0  0  0  0  0  0  0  0  0
   -1.4300   10.7320   19.4870 O   0  0  0  0  0  0  0  0  0  0  0  0
    1.0710   10.4890   21.4600 H   0  0  0  0  0  0  0  0  0  0  0  0
   -1.0810   11.8600   21.5270 C   0  0  0  0  0  0  0  0  0  0  0  0
   -0.3290   12.9060   22.0350 C   0  0  0  0  0  0  0  0  0  0  0  0
   -1.1780   13.7260   23.2770 S   0  0  0  0  0  0  0  0  0  0  0  0
   -2.5150   12.6580   23.0690 C   0  0  0  0  0  0  0  0  0  0  0  0
   -2.3360   11.7410   22.1320 N   0  0  0  0  0  0  0  0  0  0  0  0
    0.6550   13.2490   21.7460 H   0  0  0  0  0  0  0  0  0  0  0  0
   -3.7360   12.8370   23.9290 C   0  0  0  0  0  0  0  0  0  0  0  0
   -4.8440   13.1230   23.1920 F   0  0  0  0  0  0  0  0  0  0  0  0
   -4.0370   11.7330   24.6630 F   0  0  0  0  0  0  0  0  0  0  0  0
   -3.5890   13.8600   24.8160 F   0  0  0  0  0  0  0  0  0  0  0  0
    2.3830    5.8370   19.4510 C   0  0  2  0  0  0  0  0  0  0  0  0
    1.9680    5.2340   18.6340 H   0  0  0  0  0  0  0  0  0  0  0  0
    1.7040    5.3930   20.7510 C   0  0  0  0  0  0  0  0  0  0  0  0
    2.4350    5.3390   21.5670 H   0  0  0  0  0  0  0  0  0  0  0  0
    0.9280    6.1000   21.0620 H   0  0  0  0  0  0  0  0  0  0  0  0
    1.2350    4.4070   20.6670 H   0  0  0  0  0  0  0  0  0  0  0  0
    4.1940    5.5450   19.5310 S   0  0  0  0  0  0  0  0  0  0  0  0
    4.5140    4.9320   17.9480 C   0  0  0  0  0  0  0  0  0  0  0  0
    4.0520    3.8240   17.4190 N   0  0  0  0  0  0  0  0  0  0  0  0
    4.5640    3.7230   16.1450 N   0  0  0  0  0  0  0  0  0  0  0  0
    5.3210    4.7760   15.9370 C   0  0  0  0  0  0  0  0  0  0  0  0
    5.3200    5.5650   17.0470 N   0  0  0  0  0  0  0  0  0  0  0  0
    5.8680    4.9970   15.0310 H   0  0  0  0  0  0  0  0  0  0  0  0
    6.0300    6.8070   17.2010 C   0  0  0  0  0  0  0  0  0  0  0  0
    5.7050    7.5110   16.4300 H   0  0  0  0  0  0  0  0  0  0  0  0
    7.1000    6.6160   17.0920 H   0  0  0  0  0  0  0  0  0  0  0  0
    5.8080    7.2200   18.1880 H   0  0  0  0  0  0  0  0  0  0  0  0
  1 24  1  0  0  0  0
  1  6  1  0  0  0  0
  2  1  2  0  0  0  0
  3  2  1  0  0  0  0
  3  4  2  0  0  0  0
  4  5  1  0  0  0  0
  5  6  2  0  0  0  0
  5 10  1  0  0  0  0
  6  9  1  0  0  0  0
  7  2  1  0  0  0  0
  8  3  1  0  0  0  0
 10 13  1  0  0  0  0
 11 10  1  0  0  0  0
 11 14  1  0  0  0  0
 12 11  2  0  0  0  0
 14 15  2  0  0  0  0
 14 18  1  0  0  0  0
 15 16  1  0  0  0  0
 17 16  1  0  0  0  0
 17 20  1  0  0  0  0
 18 17  2  0  0  0  0
 19 15  1  0  0  0  0
 20 22  1  0  0  0  0
 20 23  1  0  0  0  0
 21 20  1  0  0  0  0
 24 25  1  6  0  0  0
 24 30  1  0  0  0  0
 24 26  1  0  0  0  0
 26 28  1  0  0  0  0
 26 27  1  0  0  0  0
 29 26  1  0  0  0  0
 31 30  1  0  0  0  0
 32 31  2  0  0  0  0
 33 32  1  0  0  0  0
 34 33  2  0  0  0  0
 34 35  1  0  0  0  0
 35 37  1  0  0  0  0
 35 31  1  0  0  0  0
 36 34  1  0  0  0  0
 37 40  1  0  0  0  0
 38 37  1  0  0  0  0
 39 37  1  0  0  0  0
M  END
>  <MODEL>
29

>  <REMARK>
 VINA RESULT:    -6.165      5.517      9.230
 INTER + INTRA:          -9.268
 INTER:                  -8.688
 INTRA:                  -0.579
 UNBOUND:                -0.579
  Name = 
  8 active torsions:
  status: ('A' for Active; 'I' for Inactive)
    1  A    between atoms: C_1  and  C_2
    2  A    between atoms: C_2  and  C_3
    3  A    between atoms: C_2  and  S_21
    4  A    between atoms: C_7  and  N_9
    5  A    between atoms: C_10  and  C_11
    6  A    between atoms: C_14  and  C_15
    7  A    between atoms: S_21  and  C_22
    8  A    between atoms: N_26  and  C_27
                            x       y       z     vdW  Elec       q    Type
                         _______ _______ _______ _____ _____    ______ ____

>  <TORSDO>
F 8

$$$$
=
 OpenBabel07192307433D

 40 42  0  0  1  0  0  0  0  0999 V2000
    2.5290    5.3900   18.9100 C   0  0  0  0  0  0  0  0  0  0  0  0
    2.0660    4.9820   20.1640 C   0  0  0  0  0  0  0  0  0  0  0  0
    1.5810    5.9410   21.0360 C   0  0  0  0  0  0  0  0  0  0  0  0
    1.5310    7.2600   20.7530 N   0  0  0  0  0  0  0  0  0  0  0  0
    1.9880    7.6540   19.5460 C   0  0  0  0  0  0  0  0  0  0  0  0
    2.4920    6.7620   18.6090 C   0  0  0  0  0  0  0  0  0  0  0  0
    2.0860    3.9420   20.4700 H   0  0  0  0  0  0  0  0  0  0  0  0
    1.2120    5.6640   22.0190 H   0  0  0  0  0  0  0  0  0  0  0  0
    2.8630    7.1010   17.6470 H   0  0  0  0  0  0  0  0  0  0  0  0
    1.8990    9.0330   19.3670 N   0  0  0  0  0  0  0  0  0  0  0  0
    1.1250    9.7350   18.4690 C   0  0  0  0  0  0  0  0  0  0  0  0
    0.3430    9.2230   17.6740 O   0  0  0  0  0  0  0  0  0  0  0  0
    2.4660    9.5220   20.0430 H   0  0  0  0  0  0  0  0  0  0  0  0
    1.2890   11.2050   18.5290 C   0  0  0  0  0  0  0  0  0  0  0  0
    2.3940   11.9320   18.1200 C   0  0  0  0  0  0  0  0  0  0  0  0
    2.1490   13.6110   18.3610 S   0  0  0  0  0  0  0  0  0  0  0  0
    0.5740   13.2920   18.9840 C   0  0  0  0  0  0  0  0  0  0  0  0
    0.2520   12.0090   19.0150 N   0  0  0  0  0  0  0  0  0  0  0  0
    3.3210   11.5860   17.6830 H   0  0  0  0  0  0  0  0  0  0  0  0
   -0.2850   14.4440   19.4280 C   0  0  0  0  0  0  0  0  0  0  0  0
   -1.4600   14.0270   19.9730 F   0  0  0  0  0  0  0  0  0  0  0  0
    0.3150   15.2270   20.3640 F   0  0  0  0  0  0  0  0  0  0  0  0
   -0.6110   15.2660   18.3920 F   0  0  0  0  0  0  0  0  0  0  0  0
    3.0930    4.4110   17.8890 C   0  0  2  0  0  0  0  0  0  0  0  0
    3.4410    4.9880   17.0240 H   0  0  0  0  0  0  0  0  0  0  0  0
    2.0380    3.4160   17.3940 C   0  0  0  0  0  0  0  0  0  0  0  0
    2.5190    2.5540   16.9160 H   0  0  0  0  0  0  0  0  0  0  0  0
    1.4310    3.0280   18.2190 H   0  0  0  0  0  0  0  0  0  0  0  0
    1.3540    3.8560   16.6620 H   0  0  0  0  0  0  0  0  0  0  0  0
    4.5280    3.5280   18.6190 S   0  0  0  0  0  0  0  0  0  0  0  0
    5.8060    4.6550   18.3350 C   0  0  0  0  0  0  0  0  0  0  0  0
    6.3380    5.4850   19.2020 N   0  0  0  0  0  0  0  0  0  0  0  0
    7.3180    6.1990   18.5500 N   0  0  0  0  0  0  0  0  0  0  0  0
    7.3550    5.7790   17.3060 C   0  0  0  0  0  0  0  0  0  0  0  0
    6.4180    4.8070   17.1250 N   0  0  0  0  0  0  0  0  0  0  0  0
    8.0190    6.1390   16.5330 H   0  0  0  0  0  0  0  0  0  0  0  0
    6.1590    4.1030   15.8980 C   0  0  0  0  0  0  0  0  0  0  0  0
    5.9960    4.8220   15.0920 H   0  0  0  0  0  0  0  0  0  0  0  0
    5.2630    3.4900   16.0260 H   0  0  0  0  0  0  0  0  0  0  0  0
    7.0250    3.4790   15.6600 H   0  0  0  0  0  0  0  0  0  0  0  0
  1  2  1  0  0  0  0
  2  7  1  0  0  0  0
  2  3  2  0  0  0  0
  3  8  1  0  0  0  0
  4  3  1  0  0  0  0
  5  4  2  0  0  0  0
  6  1  2  0  0  0  0
  6  5  1  0  0  0  0
  9  6  1  0  0  0  0
 10  5  1  0  0  0  0
 10 13  1  0  0  0  0
 11 14  1  0  0  0  0
 11 10  1  0  0  0  0
 12 11  2  0  0  0  0
 14 18  1  0  0  0  0
 15 16  1  0  0  0  0
 15 14  2  0  0  0  0
 16 17  1  0  0  0  0
 17 18  2  0  0  0  0
 17 20  1  0  0  0  0
 19 15  1  0  0  0  0
 20 21  1  0  0  0  0
 20 22  1  0  0  0  0
 23 20  1  0  0  0  0
 24 25  1  6  0  0  0
 24 30  1  0  0  0  0
 24  1  1  0  0  0  0
 26 24  1  0  0  0  0
 26 28  1  0  0  0  0
 27 26  1  0  0  0  0
 29 26  1  0  0  0  0
 31 30  1  0  0  0  0
 31 32  2  0  0  0  0
 33 32  1  0  0  0  0
 34 33  2  0  0  0  0
 35 34  1  0  0  0  0
 35 31  1  0  0  0  0
 36 34  1  0  0  0  0
 37 39  1  0  0  0  0
 37 35  1  0  0  0  0
 38 37  1  0  0  0  0
 40 37  1  0  0  0  0
M  END
>  <MODEL>
30

>  <REMARK>
 VINA RESULT:    -6.159      5.311      9.215
 INTER + INTRA:          -9.259
 INTER:                  -8.542
 INTRA:                  -0.716
 UNBOUND:                -0.579
  Name = 
  8 active torsions:
  status: ('A' for Active; 'I' for Inactive)
    1  A    between atoms: C_1  and  C_2
    2  A    between atoms: C_2  and  C_3
    3  A    between atoms: C_2  and  S_21
    4  A    between atoms: C_7  and  N_9
    5  A    between atoms: C_10  and  C_11
    6  A    between atoms: C_14  and  C_15
    7  A    between atoms: S_21  and  C_22
    8  A    between atoms: N_26  and  C_27
                            x       y       z     vdW  Elec       q    Type
                         _______ _______ _______ _____ _____    ______ ____

>  <TORSDO>
F 8

$$$$
=
 OpenBabel07192307433D

 40 42  0  0  1  0  0  0  0  0999 V2000
    2.8630    6.2440   18.8980 C   0  0  0  0  0  0  0  0  0  0  0  0
    3.4550    6.8490   17.7860 C   0  0  0  0  0  0  0  0  0  0  0  0
    3.1500    8.1690   17.5090 C   0  0  0  0  0  0  0  0  0  0  0  0
    2.3040    8.9180   18.2470 N   0  0  0  0  0  0  0  0  0  0  0  0
    1.7250    8.3300   19.3150 C   0  0  0  0  0  0  0  0  0  0  0  0
    1.9710    7.0110   19.6670 C   0  0  0  0  0  0  0  0  0  0  0  0
    4.1360    6.3090   17.1360 H   0  0  0  0  0  0  0  0  0  0  0  0
    3.5910    8.6750   16.6550 H   0  0  0  0  0  0  0  0  0  0  0  0
    1.4880    6.5550   20.5250 H   0  0  0  0  0  0  0  0  0  0  0  0
    0.8640    9.1900   19.9940 N   0  0  0  0  0  0  0  0  0  0  0  0
    0.8020    9.4520   21.3450 C   0  0  0  0  0  0  0  0  0  0  0  0
    1.5500    8.9610   22.1850 O   0  0  0  0  0  0  0  0  0  0  0  0
    0.2660    9.6860   19.3510 H   0  0  0  0  0  0  0  0  0  0  0  0
   -0.2550   10.4100   21.7410 C   0  0  0  0  0  0  0  0  0  0  0  0
   -0.7430   10.6220   23.0200 C   0  0  0  0  0  0  0  0  0  0  0  0
   -1.9560   11.8320   23.0220 S   0  0  0  0  0  0  0  0  0  0  0  0
   -1.7640   12.0290   21.3210 C   0  0  0  0  0  0  0  0  0  0  0  0
   -0.8520   11.2360   20.7820 N   0  0  0  0  0  0  0  0  0  0  0  0
   -0.4540   10.1560   23.9520 H   0  0  0  0  0  0  0  0  0  0  0  0
   -2.6080   13.0440   20.6010 C   0  0  0  0  0  0  0  0  0  0  0  0
   -3.6050   13.5330   21.3880 F   0  0  0  0  0  0  0  0  0  0  0  0
   -1.8970   14.1190   20.1690 F   0  0  0  0  0  0  0  0  0  0  0  0
   -3.2130   12.5150   19.5000 F   0  0  0  0  0  0  0  0  0  0  0  0
    3.1260    4.7920   19.2760 C   0  0  2  0  0  0  0  0  0  0  0  0
    2.8150    4.1620   18.4330 H   0  0  0  0  0  0  0  0  0  0  0  0
    2.3250    4.3570   20.5060 C   0  0  0  0  0  0  0  0  0  0  0  0
    2.9400    3.7300   21.1630 H   0  0  0  0  0  0  0  0  0  0  0  0
    1.9970    5.2180   21.0990 H   0  0  0  0  0  0  0  0  0  0  0  0
    1.4320    3.7800   20.2460 H   0  0  0  0  0  0  0  0  0  0  0  0
    4.9260    4.5510   19.5520 S   0  0  0  0  0  0  0  0  0  0  0  0
    5.4950    4.3270   17.9370 C   0  0  0  0  0  0  0  0  0  0  0  0
    4.9110    3.6480   16.9780 N   0  0  0  0  0  0  0  0  0  0  0  0
    5.7120    3.7270   15.8610 N   0  0  0  0  0  0  0  0  0  0  0  0
    6.7590    4.4560   16.1740 C   0  0  0  0  0  0  0  0  0  0  0  0
    6.6650    4.8550   17.4730 N   0  0  0  0  0  0  0  0  0  0  0  0
    7.5780    4.7090   15.5160 H   0  0  0  0  0  0  0  0  0  0  0  0
    7.6190    5.6680   18.1770 C   0  0  0  0  0  0  0  0  0  0  0  0
    8.5010    5.8220   17.5510 H   0  0  0  0  0  0  0  0  0  0  0  0
    7.9100    5.1540   19.0970 H   0  0  0  0  0  0  0  0  0  0  0  0
    7.1590    6.6350   18.4030 H   0  0  0  0  0  0  0  0  0  0  0  0
  1 24  1  0  0  0  0
  1  6  1  0  0  0  0
  2  1  2  0  0  0  0
  3  2  1  0  0  0  0
  3  4  2  0  0  0  0
  4  5  1  0  0  0  0
  5  6  2  0  0  0  0
  5 10  1  0  0  0  0
  6  9  1  0  0  0  0
  7  2  1  0  0  0  0
  8  3  1  0  0  0  0
 10 11  1  0  0  0  0
 11 14  1  0  0  0  0
 11 12  2  0  0  0  0
 13 10  1  0  0  0  0
 14 15  2  0  0  0  0
 15 16  1  0  0  0  0
 15 19  1  0  0  0  0
 17 16  1  0  0  0  0
 18 17  2  0  0  0  0
 18 14  1  0  0  0  0
 20 17  1  0  0  0  0
 20 21  1  0  0  0  0
 22 20  1  0  0  0  0
 23 20  1  0  0  0  0
 24 25  1  6  0  0  0
 24 30  1  0  0  0  0
 24 26  1  0  0  0  0
 26 28  1  0  0  0  0
 26 27  1  0  0  0  0
 29 26  1  0  0  0  0
 31 30  1  0  0  0  0
 32 31  2  0  0  0  0
 33 34  2  0  0  0  0
 33 32  1  0  0  0  0
 34 35  1  0  0  0  0
 35 31  1  0  0  0  0
 35 37  1  0  0  0  0
 36 34  1  0  0  0  0
 37 40  1  0  0  0  0
 37 39  1  0  0  0  0
 38 37  1  0  0  0  0
M  END
>  <MODEL>
31

>  <REMARK>
 VINA RESULT:    -6.154      5.111      9.207
 INTER + INTRA:          -9.251
 INTER:                  -8.906
 INTRA:                  -0.346
 UNBOUND:                -0.579
  Name = 
  8 active torsions:
  status: ('A' for Active; 'I' for Inactive)
    1  A    between atoms: C_1  and  C_2
    2  A    between atoms: C_2  and  C_3
    3  A    between atoms: C_2  and  S_21
    4  A    between atoms: C_7  and  N_9
    5  A    between atoms: C_10  and  C_11
    6  A    between atoms: C_14  and  C_15
    7  A    between atoms: S_21  and  C_22
    8  A    between atoms: N_26  and  C_27
                            x       y       z     vdW  Elec       q    Type
                         _______ _______ _______ _____ _____    ______ ____

>  <TORSDO>
F 8

$$$$
=
 OpenBabel07192307433D

 40 42  0  0  1  0  0  0  0  0999 V2000
    0.3220   10.5910   20.3060 C   0  0  0  0  0  0  0  0  0  0  0  0
   -0.2980   10.1150   21.4640 C   0  0  0  0  0  0  0  0  0  0  0  0
   -0.0120    8.8300   21.8900 C   0  0  0  0  0  0  0  0  0  0  0  0
    0.8320    7.9950   21.2480 N   0  0  0  0  0  0  0  0  0  0  0  0
    1.4220    8.4510   20.1230 C   0  0  0  0  0  0  0  0  0  0  0  0
    1.1930    9.7260   19.6230 C   0  0  0  0  0  0  0  0  0  0  0  0
   -0.9990   10.7220   22.0280 H   0  0  0  0  0  0  0  0  0  0  0  0
   -0.4730    8.4240   22.7850 H   0  0  0  0  0  0  0  0  0  0  0  0
    1.6720   10.0700   18.7120 H   0  0  0  0  0  0  0  0  0  0  0  0
    2.2610    7.5030   19.5400 N   0  0  0  0  0  0  0  0  0  0  0  0
    2.7430    7.4610   18.2500 C   0  0  0  0  0  0  0  0  0  0  0  0
    2.5130    8.3090   17.3930 O   0  0  0  0  0  0  0  0  0  0  0  0
    2.5500    6.8130   20.2150 H   0  0  0  0  0  0  0  0  0  0  0  0
    3.6010    6.2930   17.9490 C   0  0  0  0  0  0  0  0  0  0  0  0
    3.2130    4.9630   17.9390 C   0  0  0  0  0  0  0  0  0  0  0  0
    4.5270    3.9440   17.5260 S   0  0  0  0  0  0  0  0  0  0  0  0
    5.5470    5.3230   17.3640 C   0  0  0  0  0  0  0  0  0  0  0  0
    4.9450    6.4760   17.6080 N   0  0  0  0  0  0  0  0  0  0  0  0
    2.2420    4.5290   18.1320 H   0  0  0  0  0  0  0  0  0  0  0  0
    6.9870    5.1280   16.9720 C   0  0  0  0  0  0  0  0  0  0  0  0
    7.1120    4.4220   15.8160 F   0  0  0  0  0  0  0  0  0  0  0  0
    7.6510    6.2990   16.7820 F   0  0  0  0  0  0  0  0  0  0  0  0
    7.6840    4.4400   17.9200 F   0  0  0  0  0  0  0  0  0  0  0  0
    0.0600   11.9860   19.7530 C   0  0  2  0  0  0  0  0  0  0  0  0
   -0.0470   12.6710   20.6030 H   0  0  0  0  0  0  0  0  0  0  0  0
   -1.2310   12.0520   18.9320 C   0  0  0  0  0  0  0  0  0  0  0  0
   -1.4040   11.1030   18.4100 H   0  0  0  0  0  0  0  0  0  0  0  0
   -2.1050   12.2330   19.5680 H   0  0  0  0  0  0  0  0  0  0  0  0
   -1.2090   12.8420   18.1740 H   0  0  0  0  0  0  0  0  0  0  0  0
    1.4990   12.5230   18.7470 S   0  0  0  0  0  0  0  0  0  0  0  0
    2.3230   13.5630   19.8530 C   0  0  0  0  0  0  0  0  0  0  0  0
    2.0480   13.7470   21.1230 N   0  0  0  0  0  0  0  0  0  0  0  0
    2.9500   14.6620   21.6190 N   0  0  0  0  0  0  0  0  0  0  0  0
    3.7490   15.0050   20.6340 C   0  0  0  0  0  0  0  0  0  0  0  0
    3.3900   14.3380   19.5020 N   0  0  0  0  0  0  0  0  0  0  0  0
    4.5680   15.7070   20.6960 H   0  0  0  0  0  0  0  0  0  0  0  0
    4.0310   14.4480   18.2190 C   0  0  0  0  0  0  0  0  0  0  0  0
    3.3900   15.0140   17.5380 H   0  0  0  0  0  0  0  0  0  0  0  0
    4.1910   13.4440   17.8180 H   0  0  0  0  0  0  0  0  0  0  0  0
    4.9820   14.9720   18.3440 H   0  0  0  0  0  0  0  0  0  0  0  0
  1  2  1  0  0  0  0
  2  3  2  0  0  0  0
  2  7  1  0  0  0  0
  3  8  1  0  0  0  0
  4  3  1  0  0  0  0
  5  4  2  0  0  0  0
  6  5  1  0  0  0  0
  6  1  2  0  0  0  0
  9  6  1  0  0  0  0
 10  5  1  0  0  0  0
 10 13  1  0  0  0  0
 11 10  1  0  0  0  0
 12 11  2  0  0  0  0
 14 11  1  0  0  0  0
 15 14  2  0  0  0  0
 15 19  1  0  0  0  0
 16 15  1  0  0  0  0
 17 16  1  0  0  0  0
 17 18  2  0  0  0  0
 18 14  1  0  0  0  0
 20 17  1  0  0  0  0
 20 23  1  0  0  0  0
 21 20  1  0  0  0  0
 22 20  1  0  0  0  0
 24  1  1  0  0  0  0
 24 25  1  1  0  0  0
 26 28  1  0  0  0  0
 26 24  1  0  0  0  0
 27 26  1  0  0  0  0
 29 26  1  0  0  0  0
 30 24  1  0  0  0  0
 30 31  1  0  0  0  0
 31 32  2  0  0  0  0
 32 33  1  0  0  0  0
 34 36  1  0  0  0  0
 34 33  2  0  0  0  0
 35 31  1  0  0  0  0
 35 34  1  0  0  0  0
 37 40  1  0  0  0  0
 37 35  1  0  0  0  0
 38 37  1  0  0  0  0
 39 37  1  0  0  0  0
M  END
>  <MODEL>
32

>  <REMARK>
 VINA RESULT:    -6.144      3.495      4.931
 INTER + INTRA:          -9.237
 INTER:                  -8.893
 INTRA:                  -0.344
 UNBOUND:                -0.579
  Name = 
  8 active torsions:
  status: ('A' for Active; 'I' for Inactive)
    1  A    between atoms: C_1  and  C_2
    2  A    between atoms: C_2  and  C_3
    3  A    between atoms: C_2  and  S_21
    4  A    between atoms: C_7  and  N_9
    5  A    between atoms: C_10  and  C_11
    6  A    between atoms: C_14  and  C_15
    7  A    between atoms: S_21  and  C_22
    8  A    between atoms: N_26  and  C_27
                            x       y       z     vdW  Elec       q    Type
                         _______ _______ _______ _____ _____    ______ ____

>  <TORSDO>
F 8

$$$$
=
 OpenBabel07192307433D

 40 42  0  0  1  0  0  0  0  0999 V2000
   -0.0680   11.5840   20.3880 C   0  0  0  0  0  0  0  0  0  0  0  0
   -1.0510   11.7690   19.4120 C   0  0  0  0  0  0  0  0  0  0  0  0
   -1.0750   10.9120   18.3250 C   0  0  0  0  0  0  0  0  0  0  0  0
   -0.1980    9.9030   18.1420 N   0  0  0  0  0  0  0  0  0  0  0  0
    0.7570    9.7320   19.0800 C   0  0  0  0  0  0  0  0  0  0  0  0
    0.8580   10.5440   20.2010 C   0  0  0  0  0  0  0  0  0  0  0  0
   -1.7830   12.5660   19.4810 H   0  0  0  0  0  0  0  0  0  0  0  0
   -1.8240   11.0220   17.5460 H   0  0  0  0  0  0  0  0  0  0  0  0
    1.6390   10.3940   20.9390 H   0  0  0  0  0  0  0  0  0  0  0  0
    1.6120    8.6720   18.7830 N   0  0  0  0  0  0  0  0  0  0  0  0
    1.9960    7.6260   19.5920 C   0  0  0  0  0  0  0  0  0  0  0  0
    1.6020    7.4540   20.7420 O   0  0  0  0  0  0  0  0  0  0  0  0
    1.9160    8.7120   17.8220 H   0  0  0  0  0  0  0  0  0  0  0  0
    2.9420    6.6750   18.9660 C   0  0  0  0  0  0  0  0  0  0  0  0
    3.2640    5.4070   19.4220 C   0  0  0  0  0  0  0  0  0  0  0  0
    4.3960    4.6500   18.3820 S   0  0  0  0  0  0  0  0  0  0  0  0
    4.3920    6.0400   17.3640 C   0  0  0  0  0  0  0  0  0  0  0  0
    3.5970    7.0130   17.7770 N   0  0  0  0  0  0  0  0  0  0  0  0
    2.8970    4.8750   20.2880 H   0  0  0  0  0  0  0  0  0  0  0  0
    5.2530    6.0480   16.1310 C   0  0  0  0  0  0  0  0  0  0  0  0
    4.8560    6.9920   15.2340 F   0  0  0  0  0  0  0  0  0  0  0  0
    6.5630    6.2960   16.3970 F   0  0  0  0  0  0  0  0  0  0  0  0
    5.2140    4.8540   15.4740 F   0  0  0  0  0  0  0  0  0  0  0  0
    0.0470   12.4830   21.6110 C   0  0  2  0  0  0  0  0  0  0  0  0
    0.9840   12.2360   22.1260 H   0  0  0  0  0  0  0  0  0  0  0  0
   -1.1020   12.2680   22.6010 C   0  0  0  0  0  0  0  0  0  0  0  0
   -1.4020   13.2200   23.0550 H   0  0  0  0  0  0  0  0  0  0  0  0
   -1.9880   11.8540   22.1070 H   0  0  0  0  0  0  0  0  0  0  0  0
   -0.8340   11.5880   23.4170 H   0  0  0  0  0  0  0  0  0  0  0  0
    0.1220   14.2380   21.0740 S   0  0  0  0  0  0  0  0  0  0  0  0
    1.8260   14.4840   20.9400 C   0  0  0  0  0  0  0  0  0  0  0  0
    2.6460   14.8820   21.8840 N   0  0  0  0  0  0  0  0  0  0  0  0
    3.9100   14.9480   21.3410 N   0  0  0  0  0  0  0  0  0  0  0  0
    3.8200   14.5840   20.0820 C   0  0  0  0  0  0  0  0  0  0  0  0
    2.5250   14.2840   19.7850 N   0  0  0  0  0  0  0  0  0  0  0  0
    4.6370   14.5270   19.3770 H   0  0  0  0  0  0  0  0  0  0  0  0
    2.0320   13.8440   18.5080 C   0  0  0  0  0  0  0  0  0  0  0  0
    2.2540   14.6010   17.7510 H   0  0  0  0  0  0  0  0  0  0  0  0
    0.9510   13.7050   18.5770 H   0  0  0  0  0  0  0  0  0  0  0  0
    2.5280   12.9070   18.2420 H   0  0  0  0  0  0  0  0  0  0  0  0
  1 24  1  0  0  0  0
  2  7  1  0  0  0  0
  2  1  2  0  0  0  0
  3  2  1  0  0  0  0
  4  3  2  0  0  0  0
  4  5  1  0  0  0  0
  5  6  2  0  0  0  0
  6  1  1  0  0  0  0
  6  9  1  0  0  0  0
  8  3  1  0  0  0  0
 10  5  1  0  0  0  0
 10 11  1  0  0  0  0
 11 12  2  0  0  0  0
 13 10  1  0  0  0  0
 14 15  2  0  0  0  0
 14 11  1  0  0  0  0
 15 19  1  0  0  0  0
 16 15  1  0  0  0  0
 17 18  2  0  0  0  0
 17 16  1  0  0  0  0
 18 14  1  0  0  0  0
 20 22  1  0  0  0  0
 20 17  1  0  0  0  0
 21 20  1  0  0  0  0
 23 20  1  0  0  0  0
 24 25  1  1  0  0  0
 24 26  1  0  0  0  0
 26 27  1  0  0  0  0
 26 29  1  0  0  0  0
 28 26  1  0  0  0  0
 30 24  1  0  0  0  0
 31 30  1  0  0  0  0
 31 32  2  0  0  0  0
 33 32  1  0  0  0  0
 34 33  2  0  0  0  0
 35 34  1  0  0  0  0
 35 31  1  0  0  0  0
 36 34  1  0  0  0  0
 37 39  1  0  0  0  0
 37 35  1  0  0  0  0
 38 37  1  0  0  0  0
 40 37  1  0  0  0  0
M  END
>  <MODEL>
33

>  <REMARK>
 VINA RESULT:    -6.045      3.468      5.099
 INTER + INTRA:          -9.098
 INTER:                  -8.363
 INTRA:                  -0.735
 UNBOUND:                -0.579
  Name = 
  8 active torsions:
  status: ('A' for Active; 'I' for Inactive)
    1  A    between atoms: C_1  and  C_2
    2  A    between atoms: C_2  and  C_3
    3  A    between atoms: C_2  and  S_21
    4  A    between atoms: C_7  and  N_9
    5  A    between atoms: C_10  and  C_11
    6  A    between atoms: C_14  and  C_15
    7  A    between atoms: S_21  and  C_22
    8  A    between atoms: N_26  and  C_27
                            x       y       z     vdW  Elec       q    Type
                         _______ _______ _______ _____ _____    ______ ____

>  <TORSDO>
F 8

$$$$
