=
 OpenBabel07192307433D

 59 63  0  0  1  0  0  0  0  0999 V2000
    4.5080    6.0380   17.3030 C   0  0  0  0  0  0  0  0  0  0  0  0
    4.3760    4.9210   18.1300 C   0  0  0  0  0  0  0  0  0  0  0  0
    3.4850    4.9570   19.1970 C   0  0  0  0  0  0  0  0  0  0  0  0
    3.3920    3.8200   20.0340 N   0  0  0  0  0  0  0  0  0  0  0  0
    2.7600    6.0540   19.4810 N   0  0  0  0  0  0  0  0  0  0  0  0
    2.8810    7.1500   18.6950 C   0  0  0  0  0  0  0  0  0  0  0  0
    3.7400    7.1690   17.6020 C   0  0  0  0  0  0  0  0  0  0  0  0
    4.9690    4.0280   17.9600 H   0  0  0  0  0  0  0  0  0  0  0  0
    3.2660    3.0060   19.4390 H   0  0  0  0  0  0  0  0  0  0  0  0
    3.8330    8.0520   16.9780 H   0  0  0  0  0  0  0  0  0  0  0  0
    2.0950    8.2610   19.0540 N   0  0  0  0  0  0  0  0  0  0  0  0
    1.4520    8.2910   20.3570 C   0  0  0  0  0  0  0  0  0  0  0  0
    0.7350    9.6050   20.3440 C   0  0  0  0  0  0  0  0  0  0  0  0
    0.9680   10.2500   19.1330 C   0  0  0  0  0  0  0  0  0  0  0  0
    0.4320   11.4890   18.8320 C   0  0  0  0  0  0  0  0  0  0  0  0
   -0.3700   12.0940   19.8000 C   0  0  0  0  0  0  0  0  0  0  0  0
   -0.6140   11.4550   21.0300 C   0  0  0  0  0  0  0  0  0  0  0  0
   -0.0620   10.1930   21.3230 C   0  0  0  0  0  0  0  0  0  0  0  0
    1.8370    9.4000   18.3060 C   0  0  0  0  0  0  0  0  0  0  0  0
    2.2030    9.7270   17.1940 O   0  0  0  0  0  0  0  0  0  0  0  0
    0.7460    7.4600   20.4430 H   0  0  0  0  0  0  0  0  0  0  0  0
    2.2100    8.2660   21.1470 H   0  0  0  0  0  0  0  0  0  0  0  0
    0.6320   11.9660   17.8780 H   0  0  0  0  0  0  0  0  0  0  0  0
   -0.8110   13.0700   19.6010 H   0  0  0  0  0  0  0  0  0  0  0  0
   -1.2450   11.9570   21.7640 H   0  0  0  0  0  0  0  0  0  0  0  0
   -0.3160    9.5020   22.6360 C   0  0  0  0  0  0  0  0  0  0  0  0
   -1.1460   10.2160   23.4430 F   0  0  0  0  0  0  0  0  0  0  0  0
    0.8120    9.2740   23.3630 F   0  0  0  0  0  0  0  0  0  0  0  0
   -0.9090    8.2870   22.4720 F   0  0  0  0  0  0  0  0  0  0  0  0
    2.4910    3.7870   21.1590 C   0  0  0  0  0  0  0  0  0  0  0  0
    1.0330    4.0840   20.7330 C   0  0  0  0  0  0  0  0  0  0  0  0
    0.8200    2.5640   20.5760 C   0  0  0  0  0  0  0  0  0  0  0  0
    2.0200    2.3590   21.5220 C   0  0  0  0  0  0  0  0  0  0  0  0
    2.8510    4.3990   21.9920 H   0  0  0  0  0  0  0  0  0  0  0  0
    0.4300    4.5280   21.5350 H   0  0  0  0  0  0  0  0  0  0  0  0
    0.8910    4.6760   19.8250 H   0  0  0  0  0  0  0  0  0  0  0  0
    0.9930    2.1980   19.5580 H   0  0  0  0  0  0  0  0  0  0  0  0
   -0.1380    2.1800   20.9340 H   0  0  0  0  0  0  0  0  0  0  0  0
    1.7330    2.2540   22.5760 H   0  0  0  0  0  0  0  0  0  0  0  0
    2.6820    1.5270   21.2610 H   0  0  0  0  0  0  0  0  0  0  0  0
    5.4810    6.0700   16.1300 C   0  0  2  0  0  0  0  0  0  0  0  0
    5.4530    7.0790   15.6930 H   0  0  0  0  0  0  0  0  0  0  0  0
    5.0460    5.0980   15.0220 C   0  0  0  0  0  0  0  0  0  0  0  0
    4.4650    4.2580   15.4190 H   0  0  0  0  0  0  0  0  0  0  0  0
    5.9110    4.6780   14.4990 H   0  0  0  0  0  0  0  0  0  0  0  0
    4.4290    5.6100   14.2750 H   0  0  0  0  0  0  0  0  0  0  0  0
    6.9110    5.7860   16.6350 C   0  0  0  0  0  0  0  0  0  0  0  0
    7.5630    5.5400   15.7870 H   0  0  0  0  0  0  0  0  0  0  0  0
    6.8970    4.9020   17.2870 H   0  0  0  0  0  0  0  0  0  0  0  0
    7.5160    6.9090   17.4110 C   0  0  0  0  0  0  0  0  0  0  0  0
    7.6240    8.1720   17.0500 N   0  0  0  0  0  0  0  0  0  0  0  0
    8.2410    8.8610   18.0670 N   0  0  0  0  0  0  0  0  0  0  0  0
    8.4850    8.0090   19.0340 C   0  0  0  0  0  0  0  0  0  0  0  0
    8.0450    6.7750   18.6690 N   0  0  0  0  0  0  0  0  0  0  0  0
    8.9590    8.2350   19.9780 H   0  0  0  0  0  0  0  0  0  0  0  0
    8.1210    5.5770   19.4600 C   0  0  0  0  0  0  0  0  0  0  0  0
    7.1470    5.0800   19.4670 H   0  0  0  0  0  0  0  0  0  0  0  0
    8.4020    5.8510   20.4800 H   0  0  0  0  0  0  0  0  0  0  0  0
    8.8680    4.9130   19.0210 H   0  0  0  0  0  0  0  0  0  0  0  0
  1  7  2  0  0  0  0
  1  2  1  0  0  0  0
  2  3  2  0  0  0  0
  3  5  1  0  0  0  0
  3  4  1  0  0  0  0
  4 30  1  0  0  0  0
  6 11  1  0  0  0  0
  6  5  2  0  0  0  0
  7  6  1  0  0  0  0
  8  2  1  0  0  0  0
  9  4  1  0  0  0  0
 10  7  1  0  0  0  0
 11 12  1  0  0  0  0
 12 21  1  0  0  0  0
 12 22  1  0  0  0  0
 13 12  1  0  0  0  0
 13 18  1  0  0  0  0
 14 13  2  0  0  0  0
 15 14  1  0  0  0  0
 15 16  2  0  0  0  0
 16 17  1  0  0  0  0
 17 18  2  0  0  0  0
 17 25  1  0  0  0  0
 18 26  1  0  0  0  0
 19 11  1  0  0  0  0
 19 14  1  0  0  0  0
 20 19  2  0  0  0  0
 23 15  1  0  0  0  0
 24 16  1  0  0  0  0
 26 28  1  0  0  0  0
 26 27  1  0  0  0  0
 29 26  1  0  0  0  0
 30 33  1  0  0  0  0
 30 34  1  0  0  0  0
 31 30  1  0  0  0  0
 31 35  1  0  0  0  0
 32 31  1  0  0  0  0
 32 38  1  0  0  0  0
 32 33  1  0  0  0  0
 33 39  1  0  0  0  0
 36 31  1  0  0  0  0
 37 32  1  0  0  0  0
 40 33  1  0  0  0  0
 41 42  1  6  0  0  0
 41 47  1  0  0  0  0
 41  1  1  0  0  0  0
 43 44  1  0  0  0  0
 43 41  1  0  0  0  0
 45 43  1  0  0  0  0
 46 43  1  0  0  0  0
 47 49  1  0  0  0  0
 47 50  1  0  0  0  0
 48 47  1  0  0  0  0
 50 54  1  0  0  0  0
 51 50  2  0  0  0  0
 51 52  1  0  0  0  0
 52 53  2  0  0  0  0
 53 55  1  0  0  0  0
 54 53  1  0  0  0  0
 54 56  1  0  0  0  0
 56 57  1  0  0  0  0
 56 58  1  0  0  0  0
 59 56  1  0  0  0  0
M  END
>  <MODEL>
1

>  <REMARK>
 VINA RESULT:    -8.421      0.000      0.000
 INTER + INTRA:         -13.073
 INTER:                 -12.244
 INTRA:                  -0.829
 UNBOUND:                -1.207
  Name = 
  8 active torsions:
  status: ('A' for Active; 'I' for Inactive)
    1  A    between atoms: C_1  and  C_2
    2  A    between atoms: C_2  and  C_3
    3  A    between atoms: C_2  and  C_10
    4  A    between atoms: C_3  and  C_4
    5  A    between atoms: N_8  and  C_9
    6  A    between atoms: N_13  and  C_14
    7  A    between atoms: C_19  and  N_21
    8  A    between atoms: C_28  and  C_29
                            x       y       z     vdW  Elec       q    Type
                         _______ _______ _______ _____ _____    ______ ____

>  <TORSDO>
F 8

$$$$
=
 OpenBabel07192307433D

 59 63  0  0  1  0  0  0  0  0999 V2000
    4.4830    6.0290   17.3190 C   0  0  0  0  0  0  0  0  0  0  0  0
    4.3700    4.9100   18.1470 C   0  0  0  0  0  0  0  0  0  0  0  0
    3.4750    4.9310   19.2120 C   0  0  0  0  0  0  0  0  0  0  0  0
    3.4000    3.7930   20.0500 N   0  0  0  0  0  0  0  0  0  0  0  0
    2.7300    6.0150   19.4930 N   0  0  0  0  0  0  0  0  0  0  0  0
    2.8340    7.1120   18.7070 C   0  0  0  0  0  0  0  0  0  0  0  0
    3.6950    7.1460   17.6160 C   0  0  0  0  0  0  0  0  0  0  0  0
    4.9780    4.0280   17.9790 H   0  0  0  0  0  0  0  0  0  0  0  0
    3.2910    2.9760   19.4550 H   0  0  0  0  0  0  0  0  0  0  0  0
    3.7740    8.0300   16.9910 H   0  0  0  0  0  0  0  0  0  0  0  0
    2.0270    8.2090   19.0630 N   0  0  0  0  0  0  0  0  0  0  0  0
    1.4210    8.2520   20.3830 C   0  0  0  0  0  0  0  0  0  0  0  0
    0.6670    9.5450   20.3610 C   0  0  0  0  0  0  0  0  0  0  0  0
    0.8470   10.1680   19.1290 C   0  0  0  0  0  0  0  0  0  0  0  0
    0.2690   11.3850   18.8170 C   0  0  0  0  0  0  0  0  0  0  0  0
   -0.5220   11.9900   19.7930 C   0  0  0  0  0  0  0  0  0  0  0  0
   -0.7140   11.3730   21.0430 C   0  0  0  0  0  0  0  0  0  0  0  0
   -0.1190   10.1340   21.3490 C   0  0  0  0  0  0  0  0  0  0  0  0
    1.7170    9.3230   18.2980 C   0  0  0  0  0  0  0  0  0  0  0  0
    2.0430    9.6350   17.1690 O   0  0  0  0  0  0  0  0  0  0  0  0
    0.7400    7.4040   20.5070 H   0  0  0  0  0  0  0  0  0  0  0  0
    2.2000    8.2660   21.1520 H   0  0  0  0  0  0  0  0  0  0  0  0
    0.4290   11.8450   17.8470 H   0  0  0  0  0  0  0  0  0  0  0  0
   -0.9950   12.9480   19.5860 H   0  0  0  0  0  0  0  0  0  0  0  0
   -1.3380   11.8750   21.7840 H   0  0  0  0  0  0  0  0  0  0  0  0
   -0.3170    9.4660   22.6830 C   0  0  0  0  0  0  0  0  0  0  0  0
   -1.1310   10.1840   23.5040 F   0  0  0  0  0  0  0  0  0  0  0  0
    0.8380    9.2720   23.3760 F   0  0  0  0  0  0  0  0  0  0  0  0
   -0.8950    8.2390   22.5650 F   0  0  0  0  0  0  0  0  0  0  0  0
    2.4970    3.7450   21.1720 C   0  0  0  0  0  0  0  0  0  0  0  0
    1.0430    4.0670   20.7510 C   0  0  0  0  0  0  0  0  0  0  0  0
    0.8140    2.5530   20.5600 C   0  0  0  0  0  0  0  0  0  0  0  0
    2.0110    2.3140   21.5020 C   0  0  0  0  0  0  0  0  0  0  0  0
    2.8630    4.3340   22.0190 H   0  0  0  0  0  0  0  0  0  0  0  0
    0.4440    4.4990   21.5620 H   0  0  0  0  0  0  0  0  0  0  0  0
    0.9090    4.6800   19.8560 H   0  0  0  0  0  0  0  0  0  0  0  0
    0.9840    2.2080   19.5340 H   0  0  0  0  0  0  0  0  0  0  0  0
   -0.1490    2.1720   20.9080 H   0  0  0  0  0  0  0  0  0  0  0  0
    1.7210    2.1890   22.5530 H   0  0  0  0  0  0  0  0  0  0  0  0
    2.6640    1.4810   21.2250 H   0  0  0  0  0  0  0  0  0  0  0  0
    5.4590    6.0770   16.1480 C   0  0  2  0  0  0  0  0  0  0  0  0
    6.4290    6.4240   16.5310 H   0  0  0  0  0  0  0  0  0  0  0  0
    5.0080    7.0990   15.0940 C   0  0  0  0  0  0  0  0  0  0  0  0
    3.9200    7.2210   15.0800 H   0  0  0  0  0  0  0  0  0  0  0  0
    5.3150    6.7950   14.0880 H   0  0  0  0  0  0  0  0  0  0  0  0
    5.4530    8.0820   15.2880 H   0  0  0  0  0  0  0  0  0  0  0  0
    5.6330    4.6610   15.5610 C   0  0  0  0  0  0  0  0  0  0  0  0
    4.6490    4.2110   15.3770 H   0  0  0  0  0  0  0  0  0  0  0  0
    6.1380    4.0220   16.2980 H   0  0  0  0  0  0  0  0  0  0  0  0
    6.4340    4.6190   14.3020 C   0  0  0  0  0  0  0  0  0  0  0  0
    7.6320    5.1260   14.0910 N   0  0  0  0  0  0  0  0  0  0  0  0
    7.9950    4.8530   12.7940 N   0  0  0  0  0  0  0  0  0  0  0  0
    7.0190    4.1730   12.2430 C   0  0  0  0  0  0  0  0  0  0  0  0
    6.0220    4.0000   13.1500 N   0  0  0  0  0  0  0  0  0  0  0  0
    6.9960    3.8020   11.2280 H   0  0  0  0  0  0  0  0  0  0  0  0
    4.7870    3.2970   12.9320 C   0  0  0  0  0  0  0  0  0  0  0  0
    4.2740    3.1500   13.8870 H   0  0  0  0  0  0  0  0  0  0  0  0
    5.0140    2.3270   12.4830 H   0  0  0  0  0  0  0  0  0  0  0  0
    4.1570    3.8900   12.2660 H   0  0  0  0  0  0  0  0  0  0  0  0
  1  7  2  0  0  0  0
  1  2  1  0  0  0  0
  2  3  2  0  0  0  0
  3  5  1  0  0  0  0
  3  4  1  0  0  0  0
  4 30  1  0  0  0  0
  6 11  1  0  0  0  0
  6  5  2  0  0  0  0
  7  6  1  0  0  0  0
  8  2  1  0  0  0  0
  9  4  1  0  0  0  0
 10  7  1  0  0  0  0
 11 12  1  0  0  0  0
 12 21  1  0  0  0  0
 12 22  1  0  0  0  0
 13 12  1  0  0  0  0
 13 18  1  0  0  0  0
 14 13  2  0  0  0  0
 15 14  1  0  0  0  0
 15 16  2  0  0  0  0
 16 17  1  0  0  0  0
 17 18  2  0  0  0  0
 17 25  1  0  0  0  0
 18 26  1  0  0  0  0
 19 11  1  0  0  0  0
 19 14  1  0  0  0  0
 20 19  2  0  0  0  0
 23 15  1  0  0  0  0
 24 16  1  0  0  0  0
 26 28  1  0  0  0  0
 26 27  1  0  0  0  0
 29 26  1  0  0  0  0
 30 33  1  0  0  0  0
 30 34  1  0  0  0  0
 31 30  1  0  0  0  0
 31 35  1  0  0  0  0
 32 31  1  0  0  0  0
 32 38  1  0  0  0  0
 32 33  1  0  0  0  0
 33 39  1  0  0  0  0
 36 31  1  0  0  0  0
 37 32  1  0  0  0  0
 40 33  1  0  0  0  0
 41 42  1  1  0  0  0
 41  1  1  0  0  0  0
 43 46  1  0  0  0  0
 43 41  1  0  0  0  0
 44 43  1  0  0  0  0
 45 43  1  0  0  0  0
 47 41  1  0  0  0  0
 47 49  1  0  0  0  0
 48 47  1  0  0  0  0
 50 47  1  0  0  0  0
 51 50  2  0  0  0  0
 52 51  1  0  0  0  0
 53 52  2  0  0  0  0
 53 54  1  0  0  0  0
 54 50  1  0  0  0  0
 55 53  1  0  0  0  0
 56 54  1  0  0  0  0
 56 57  1  0  0  0  0
 58 56  1  0  0  0  0
 59 56  1  0  0  0  0
M  END
>  <MODEL>
2

>  <REMARK>
 VINA RESULT:    -7.540      1.874      2.714
 INTER + INTRA:         -11.833
 INTER:                 -11.376
 INTRA:                  -0.457
 UNBOUND:                -1.207
  Name = 
  8 active torsions:
  status: ('A' for Active; 'I' for Inactive)
    1  A    between atoms: C_1  and  C_2
    2  A    between atoms: C_2  and  C_3
    3  A    between atoms: C_2  and  C_10
    4  A    between atoms: C_3  and  C_4
    5  A    between atoms: N_8  and  C_9
    6  A    between atoms: N_13  and  C_14
    7  A    between atoms: C_19  and  N_21
    8  A    between atoms: C_28  and  C_29
                            x       y       z     vdW  Elec       q    Type
                         _______ _______ _______ _____ _____    ______ ____

>  <TORSDO>
F 8

$$$$
=
 OpenBabel07192307433D

 59 63  0  0  1  0  0  0  0  0999 V2000
    5.5750    5.1530   18.9000 C   0  0  0  0  0  0  0  0  0  0  0  0
    4.9910    3.9470   19.2900 C   0  0  0  0  0  0  0  0  0  0  0  0
    3.6470    3.9160   19.6430 C   0  0  0  0  0  0  0  0  0  0  0  0
    3.0880    2.6840   20.0600 N   0  0  0  0  0  0  0  0  0  0  0  0
    2.8880    5.0270   19.6520 N   0  0  0  0  0  0  0  0  0  0  0  0
    3.4400    6.2070   19.2850 C   0  0  0  0  0  0  0  0  0  0  0  0
    4.7730    6.3000   18.9030 C   0  0  0  0  0  0  0  0  0  0  0  0
    5.5750    3.0330   19.3340 H   0  0  0  0  0  0  0  0  0  0  0  0
    3.3330    1.9820   19.3670 H   0  0  0  0  0  0  0  0  0  0  0  0
    5.2080    7.2500   18.6110 H   0  0  0  0  0  0  0  0  0  0  0  0
    2.5880    7.3280   19.3210 N   0  0  0  0  0  0  0  0  0  0  0  0
    1.8760    7.6460   20.5470 C   0  0  0  0  0  0  0  0  0  0  0  0
    1.1030    8.8730   20.1750 C   0  0  0  0  0  0  0  0  0  0  0  0
    1.3720    9.2080   18.8510 C   0  0  0  0  0  0  0  0  0  0  0  0
    0.8000   10.3020   18.2270 C   0  0  0  0  0  0  0  0  0  0  0  0
   -0.0780   11.0830   18.9790 C   0  0  0  0  0  0  0  0  0  0  0  0
   -0.3590   10.7570   20.3190 C   0  0  0  0  0  0  0  0  0  0  0  0
    0.2300    9.6400   20.9410 C   0  0  0  0  0  0  0  0  0  0  0  0
    2.3210    8.2290   18.3010 C   0  0  0  0  0  0  0  0  0  0  0  0
    2.7310    8.2890   17.1590 O   0  0  0  0  0  0  0  0  0  0  0  0
    1.2030    6.8230   20.8100 H   0  0  0  0  0  0  0  0  0  0  0  0
    2.5900    7.8600   21.3490 H   0  0  0  0  0  0  0  0  0  0  0  0
    1.0300   10.5370   17.1930 H   0  0  0  0  0  0  0  0  0  0  0  0
   -0.5490   11.9530   18.5240 H   0  0  0  0  0  0  0  0  0  0  0  0
   -1.0500   11.3910   20.8760 H   0  0  0  0  0  0  0  0  0  0  0  0
   -0.0630    9.2850   22.3740 C   0  0  0  0  0  0  0  0  0  0  0  0
   -0.8390   10.2180   22.9890 F   0  0  0  0  0  0  0  0  0  0  0  0
    1.0500    9.1540   23.1460 F   0  0  0  0  0  0  0  0  0  0  0  0
   -0.7370    8.1070   22.4850 F   0  0  0  0  0  0  0  0  0  0  0  0
    1.7020    2.5780   20.4410 C   0  0  0  0  0  0  0  0  0  0  0  0
    0.8420    3.6850   19.7860 C   0  0  0  0  0  0  0  0  0  0  0  0
    0.5510    2.7080   18.6290 C   0  0  0  0  0  0  0  0  0  0  0  0
    0.9120    1.5570   19.5890 C   0  0  0  0  0  0  0  0  0  0  0  0
    1.5800    2.4940   21.5260 H   0  0  0  0  0  0  0  0  0  0  0  0
   -0.0480    3.9440   20.3720 H   0  0  0  0  0  0  0  0  0  0  0  0
    1.3530    4.6100   19.5050 H   0  0  0  0  0  0  0  0  0  0  0  0
    1.2410    2.8090   17.7830 H   0  0  0  0  0  0  0  0  0  0  0  0
   -0.4750    2.7090   18.2540 H   0  0  0  0  0  0  0  0  0  0  0  0
    0.0440    1.1370   20.1140 H   0  0  0  0  0  0  0  0  0  0  0  0
    1.4730    0.7320   19.1400 H   0  0  0  0  0  0  0  0  0  0  0  0
    7.0480    5.2580   18.5200 C   0  0  2  0  0  0  0  0  0  0  0  0
    7.4430    4.2370   18.4150 H   0  0  0  0  0  0  0  0  0  0  0  0
    7.8610    5.9320   19.6360 C   0  0  0  0  0  0  0  0  0  0  0  0
    8.3230    5.2000   20.3060 H   0  0  0  0  0  0  0  0  0  0  0  0
    7.2300    6.5830   20.2500 H   0  0  0  0  0  0  0  0  0  0  0  0
    8.6600    6.5530   19.2150 H   0  0  0  0  0  0  0  0  0  0  0  0
    7.1840    5.9870   17.1680 C   0  0  0  0  0  0  0  0  0  0  0  0
    8.2340    6.2570   16.9950 H   0  0  0  0  0  0  0  0  0  0  0  0
    6.6200    6.9290   17.2050 H   0  0  0  0  0  0  0  0  0  0  0  0
    6.6790    5.2040   16.0010 C   0  0  0  0  0  0  0  0  0  0  0  0
    7.0900    4.0240   15.5830 N   0  0  0  0  0  0  0  0  0  0  0  0
    6.3490    3.6730   14.4800 N   0  0  0  0  0  0  0  0  0  0  0  0
    5.4920    4.6400   14.2540 C   0  0  0  0  0  0  0  0  0  0  0  0
    5.6590    5.6180   15.1830 N   0  0  0  0  0  0  0  0  0  0  0  0
    4.7610    4.6690   13.4590 H   0  0  0  0  0  0  0  0  0  0  0  0
    4.9030    6.8370   15.2800 C   0  0  0  0  0  0  0  0  0  0  0  0
    4.6680    7.2040   14.2780 H   0  0  0  0  0  0  0  0  0  0  0  0
    5.5050    7.5770   15.8130 H   0  0  0  0  0  0  0  0  0  0  0  0
    3.9770    6.6340   15.8220 H   0  0  0  0  0  0  0  0  0  0  0  0
  1  7  2  0  0  0  0
  1  2  1  0  0  0  0
  2  8  1  0  0  0  0
  2  3  2  0  0  0  0
  3  5  1  0  0  0  0
  3  4  1  0  0  0  0
  4 30  1  0  0  0  0
  6 11  1  0  0  0  0
  6  5  2  0  0  0  0
  7  6  1  0  0  0  0
  9  4  1  0  0  0  0
 10  7  1  0  0  0  0
 11 12  1  0  0  0  0
 12 21  1  0  0  0  0
 12 22  1  0  0  0  0
 13 12  1  0  0  0  0
 13 18  1  0  0  0  0
 14 13  2  0  0  0  0
 15 14  1  0  0  0  0
 15 16  2  0  0  0  0
 16 17  1  0  0  0  0
 17 25  1  0  0  0  0
 17 18  2  0  0  0  0
 18 26  1  0  0  0  0
 19 14  1  0  0  0  0
 19 11  1  0  0  0  0
 20 19  2  0  0  0  0
 23 15  1  0  0  0  0
 24 16  1  0  0  0  0
 26 29  1  0  0  0  0
 26 27  1  0  0  0  0
 26 28  1  0  0  0  0
 30 34  1  0  0  0  0
 31 35  1  0  0  0  0
 31 30  1  0  0  0  0
 32 33  1  0  0  0  0
 32 31  1  0  0  0  0
 33 39  1  0  0  0  0
 33 30  1  0  0  0  0
 36 31  1  0  0  0  0
 37 32  1  0  0  0  0
 38 32  1  0  0  0  0
 40 33  1  0  0  0  0
 41 42  1  6  0  0  0
 41  1  1  0  0  0  0
 41 43  1  0  0  0  0
 43 45  1  0  0  0  0
 43 44  1  0  0  0  0
 46 43  1  0  0  0  0
 47 49  1  0  0  0  0
 47 41  1  0  0  0  0
 48 47  1  0  0  0  0
 50 47  1  0  0  0  0
 51 50  2  0  0  0  0
 52 51  1  0  0  0  0
 53 52  2  0  0  0  0
 53 54  1  0  0  0  0
 54 56  1  0  0  0  0
 54 50  1  0  0  0  0
 55 53  1  0  0  0  0
 56 58  1  0  0  0  0
 56 59  1  0  0  0  0
 57 56  1  0  0  0  0
M  END
>  <MODEL>
3

>  <REMARK>
 VINA RESULT:    -7.496      1.693      2.670
 INTER + INTRA:         -11.770
 INTER:                 -11.588
 INTRA:                  -0.183
 UNBOUND:                -1.207
  Name = 
  8 active torsions:
  status: ('A' for Active; 'I' for Inactive)
    1  A    between atoms: C_1  and  C_2
    2  A    between atoms: C_2  and  C_3
    3  A    between atoms: C_2  and  C_10
    4  A    between atoms: C_3  and  C_4
    5  A    between atoms: N_8  and  C_9
    6  A    between atoms: N_13  and  C_14
    7  A    between atoms: C_19  and  N_21
    8  A    between atoms: C_28  and  C_29
                            x       y       z     vdW  Elec       q    Type
                         _______ _______ _______ _____ _____    ______ ____

>  <TORSDO>
F 8

$$$$
=
 OpenBabel07192307433D

 59 63  0  0  1  0  0  0  0  0999 V2000
    0.6580   12.6440   19.7210 C   0  0  0  0  0  0  0  0  0  0  0  0
   -0.3740   12.7310   18.7850 C   0  0  0  0  0  0  0  0  0  0  0  0
   -0.7810   11.5900   18.1030 C   0  0  0  0  0  0  0  0  0  0  0  0
   -1.8120   11.7140   17.1410 N   0  0  0  0  0  0  0  0  0  0  0  0
   -0.1880   10.3970   18.2930 N   0  0  0  0  0  0  0  0  0  0  0  0
    0.8200   10.2960   19.1900 C   0  0  0  0  0  0  0  0  0  0  0  0
    1.2600   11.3960   19.9180 C   0  0  0  0  0  0  0  0  0  0  0  0
   -0.8560   13.6800   18.5730 H   0  0  0  0  0  0  0  0  0  0  0  0
   -2.5830   12.2140   17.5750 H   0  0  0  0  0  0  0  0  0  0  0  0
    2.0700   11.3060   20.6340 H   0  0  0  0  0  0  0  0  0  0  0  0
    1.3960    9.0190   19.3340 N   0  0  0  0  0  0  0  0  0  0  0  0
    2.3770    8.5640   18.3640 C   0  0  0  0  0  0  0  0  0  0  0  0
    2.7310    7.1980   18.8650 C   0  0  0  0  0  0  0  0  0  0  0  0
    2.0070    6.9240   20.0210 C   0  0  0  0  0  0  0  0  0  0  0  0
    2.1260    5.7330   20.7120 C   0  0  0  0  0  0  0  0  0  0  0  0
    3.0150    4.7840   20.2070 C   0  0  0  0  0  0  0  0  0  0  0  0
    3.7550    5.0460   19.0390 C   0  0  0  0  0  0  0  0  0  0  0  0
    3.6240    6.2640   18.3460 C   0  0  0  0  0  0  0  0  0  0  0  0
    1.1550    8.0830   20.3280 C   0  0  0  0  0  0  0  0  0  0  0  0
    0.4190    8.1130   21.2950 O   0  0  0  0  0  0  0  0  0  0  0  0
    1.9210    8.5110   17.3700 H   0  0  0  0  0  0  0  0  0  0  0  0
    3.2500    9.2240   18.3780 H   0  0  0  0  0  0  0  0  0  0  0  0
    1.5470    5.5490   21.6110 H   0  0  0  0  0  0  0  0  0  0  0  0
    3.1370    3.8320   20.7220 H   0  0  0  0  0  0  0  0  0  0  0  0
    4.4420    4.2810   18.6730 H   0  0  0  0  0  0  0  0  0  0  0  0
    4.4120    6.5540   17.0960 C   0  0  0  0  0  0  0  0  0  0  0  0
    5.6290    7.0990   17.3680 F   0  0  0  0  0  0  0  0  0  0  0  0
    3.7940    7.4200   16.2470 F   0  0  0  0  0  0  0  0  0  0  0  0
    4.6600    5.4290   16.3700 F   0  0  0  0  0  0  0  0  0  0  0  0
   -2.2840   10.5740   16.3950 C   0  0  0  0  0  0  0  0  0  0  0  0
   -3.4830    9.8900   17.0940 C   0  0  0  0  0  0  0  0  0  0  0  0
   -4.4210   10.7740   16.2470 C   0  0  0  0  0  0  0  0  0  0  0  0
   -3.2570   10.9530   15.2530 C   0  0  0  0  0  0  0  0  0  0  0  0
   -1.4700    9.8940   16.1250 H   0  0  0  0  0  0  0  0  0  0  0  0
   -3.5650    8.8200   16.8610 H   0  0  0  0  0  0  0  0  0  0  0  0
   -3.5660   10.0160   18.1760 H   0  0  0  0  0  0  0  0  0  0  0  0
   -4.7210   11.7020   16.7470 H   0  0  0  0  0  0  0  0  0  0  0  0
   -5.3110   10.2800   15.8520 H   0  0  0  0  0  0  0  0  0  0  0  0
   -3.2650   10.2230   14.4340 H   0  0  0  0  0  0  0  0  0  0  0  0
   -3.1620   11.9530   14.8200 H   0  0  0  0  0  0  0  0  0  0  0  0
    1.1650   13.8600   20.4880 C   0  0  2  0  0  0  0  0  0  0  0  0
    0.8320   14.7610   19.9510 H   0  0  0  0  0  0  0  0  0  0  0  0
    2.7000   13.9020   20.5090 C   0  0  0  0  0  0  0  0  0  0  0  0
    3.0870   14.8990   20.2700 H   0  0  0  0  0  0  0  0  0  0  0  0
    3.1270   13.2040   19.7810 H   0  0  0  0  0  0  0  0  0  0  0  0
    3.0850   13.6210   21.4960 H   0  0  0  0  0  0  0  0  0  0  0  0
    0.5550   13.8710   21.9040 C   0  0  0  0  0  0  0  0  0  0  0  0
    0.8480   14.7900   22.4290 H   0  0  0  0  0  0  0  0  0  0  0  0
    0.9680   13.0340   22.4840 H   0  0  0  0  0  0  0  0  0  0  0  0
   -0.9320   13.7450   21.9280 C   0  0  0  0  0  0  0  0  0  0  0  0
   -1.8230   14.6330   21.5340 N   0  0  0  0  0  0  0  0  0  0  0  0
   -3.0760   14.1030   21.7270 N   0  0  0  0  0  0  0  0  0  0  0  0
   -2.9270   12.8980   22.2230 C   0  0  0  0  0  0  0  0  0  0  0  0
   -1.6020   12.6290   22.3630 N   0  0  0  0  0  0  0  0  0  0  0  0
   -3.7210   12.2140   22.4840 H   0  0  0  0  0  0  0  0  0  0  0  0
   -1.0300   11.4090   22.8620 C   0  0  0  0  0  0  0  0  0  0  0  0
   -1.8280   10.7080   23.1200 H   0  0  0  0  0  0  0  0  0  0  0  0
   -0.4400   11.6400   23.7530 H   0  0  0  0  0  0  0  0  0  0  0  0
   -0.3970   10.9730   22.0850 H   0  0  0  0  0  0  0  0  0  0  0  0
  1  7  1  0  0  0  0
  1 41  1  0  0  0  0
  2  1  2  0  0  0  0
  3  5  2  0  0  0  0
  3  2  1  0  0  0  0
  4  9  1  0  0  0  0
  4  3  1  0  0  0  0
  5  6  1  0  0  0  0
  6 11  1  0  0  0  0
  6  7  2  0  0  0  0
  7 10  1  0  0  0  0
  8  2  1  0  0  0  0
 11 19  1  0  0  0  0
 12 22  1  0  0  0  0
 12 13  1  0  0  0  0
 12 11  1  0  0  0  0
 13 14  1  0  0  0  0
 14 19  1  0  0  0  0
 14 15  2  0  0  0  0
 15 23  1  0  0  0  0
 16 15  1  0  0  0  0
 16 24  1  0  0  0  0
 17 16  2  0  0  0  0
 18 13  2  0  0  0  0
 18 17  1  0  0  0  0
 19 20  2  0  0  0  0
 21 12  1  0  0  0  0
 25 17  1  0  0  0  0
 26 27  1  0  0  0  0
 26 18  1  0  0  0  0
 28 26  1  0  0  0  0
 29 26  1  0  0  0  0
 30 31  1  0  0  0  0
 30  4  1  0  0  0  0
 31 36  1  0  0  0  0
 32 37  1  0  0  0  0
 32 31  1  0  0  0  0
 33 32  1  0  0  0  0
 33 30  1  0  0  0  0
 34 30  1  0  0  0  0
 35 31  1  0  0  0  0
 38 32  1  0  0  0  0
 39 33  1  0  0  0  0
 40 33  1  0  0  0  0
 41 42  1  6  0  0  0
 41 43  1  0  0  0  0
 41 47  1  0  0  0  0
 43 46  1  0  0  0  0
 44 43  1  0  0  0  0
 45 43  1  0  0  0  0
 47 50  1  0  0  0  0
 47 48  1  0  0  0  0
 47 49  1  0  0  0  0
 50 54  1  0  0  0  0
 51 52  1  0  0  0  0
 51 50  2  0  0  0  0
 52 53  2  0  0  0  0
 53 54  1  0  0  0  0
 53 55  1  0  0  0  0
 54 56  1  0  0  0  0
 56 57  1  0  0  0  0
 56 58  1  0  0  0  0
 59 56  1  0  0  0  0
M  END
>  <MODEL>
4

>  <REMARK>
 VINA RESULT:    -7.433      4.187      8.734
 INTER + INTRA:         -11.681
 INTER:                 -10.476
 INTRA:                  -1.204
 UNBOUND:                -1.207
  Name = 
  8 active torsions:
  status: ('A' for Active; 'I' for Inactive)
    1  A    between atoms: C_1  and  C_2
    2  A    between atoms: C_2  and  C_3
    3  A    between atoms: C_2  and  C_10
    4  A    between atoms: C_3  and  C_4
    5  A    between atoms: N_8  and  C_9
    6  A    between atoms: N_13  and  C_14
    7  A    between atoms: C_19  and  N_21
    8  A    between atoms: C_28  and  C_29
                            x       y       z     vdW  Elec       q    Type
                         _______ _______ _______ _____ _____    ______ ____

>  <TORSDO>
F 8

$$$$
=
 OpenBabel07192307433D

 59 63  0  0  1  0  0  0  0  0999 V2000
    0.7760   12.6060   19.9590 C   0  0  0  0  0  0  0  0  0  0  0  0
   -0.2580   12.7520   19.0320 C   0  0  0  0  0  0  0  0  0  0  0  0
   -0.7150   11.6420   18.3310 C   0  0  0  0  0  0  0  0  0  0  0  0
   -1.7470   11.8250   17.3800 N   0  0  0  0  0  0  0  0  0  0  0  0
   -0.1690   10.4230   18.4940 N   0  0  0  0  0  0  0  0  0  0  0  0
    0.8410   10.2640   19.3820 C   0  0  0  0  0  0  0  0  0  0  0  0
    1.3290   11.3310   20.1270 C   0  0  0  0  0  0  0  0  0  0  0  0
   -0.7030   13.7230   18.8420 H   0  0  0  0  0  0  0  0  0  0  0  0
   -2.4940   12.3470   17.8290 H   0  0  0  0  0  0  0  0  0  0  0  0
    2.1400   11.1960   20.8350 H   0  0  0  0  0  0  0  0  0  0  0  0
    1.3650    8.9630   19.4970 N   0  0  0  0  0  0  0  0  0  0  0  0
    2.3440    8.4980   18.5290 C   0  0  0  0  0  0  0  0  0  0  0  0
    2.6390    7.1060   18.9950 C   0  0  0  0  0  0  0  0  0  0  0  0
    1.8870    6.8280   20.1320 C   0  0  0  0  0  0  0  0  0  0  0  0
    1.9500    5.6130   20.7900 C   0  0  0  0  0  0  0  0  0  0  0  0
    2.8110    4.6460   20.2710 C   0  0  0  0  0  0  0  0  0  0  0  0
    3.5790    4.9130   19.1220 C   0  0  0  0  0  0  0  0  0  0  0  0
    3.5040    6.1540   18.4620 C   0  0  0  0  0  0  0  0  0  0  0  0
    1.0750    8.0090   20.4600 C   0  0  0  0  0  0  0  0  0  0  0  0
    0.3250    8.0400   21.4160 O   0  0  0  0  0  0  0  0  0  0  0  0
    1.9020    8.4910   17.5270 H   0  0  0  0  0  0  0  0  0  0  0  0
    3.2410    9.1250   18.5740 H   0  0  0  0  0  0  0  0  0  0  0  0
    1.3500    5.4260   21.6750 H   0  0  0  0  0  0  0  0  0  0  0  0
    2.8890    3.6760   20.7600 H   0  0  0  0  0  0  0  0  0  0  0  0
    4.2420    4.1330   18.7440 H   0  0  0  0  0  0  0  0  0  0  0  0
    4.3220    6.4490   17.2330 C   0  0  0  0  0  0  0  0  0  0  0  0
    5.5570    6.9300   17.5380 F   0  0  0  0  0  0  0  0  0  0  0  0
    3.7540    7.3690   16.4050 F   0  0  0  0  0  0  0  0  0  0  0  0
    4.5300    5.3390   16.4730 F   0  0  0  0  0  0  0  0  0  0  0  0
   -2.2690   10.7200   16.6160 C   0  0  0  0  0  0  0  0  0  0  0  0
   -3.5040   10.0850   17.2990 C   0  0  0  0  0  0  0  0  0  0  0  0
   -4.3930   11.0250   16.4600 C   0  0  0  0  0  0  0  0  0  0  0  0
   -3.2150   11.1610   15.4740 C   0  0  0  0  0  0  0  0  0  0  0  0
   -1.4880   10.0050   16.3420 H   0  0  0  0  0  0  0  0  0  0  0  0
   -3.6370    9.0240   17.0520 H   0  0  0  0  0  0  0  0  0  0  0  0
   -3.5870   10.2010   18.3830 H   0  0  0  0  0  0  0  0  0  0  0  0
   -4.6500   11.9600   16.9700 H   0  0  0  0  0  0  0  0  0  0  0  0
   -5.3040   10.5800   16.0530 H   0  0  0  0  0  0  0  0  0  0  0  0
   -3.2540   10.4420   14.6450 H   0  0  0  0  0  0  0  0  0  0  0  0
   -3.0700   12.1610   15.0550 H   0  0  0  0  0  0  0  0  0  0  0  0
    1.3370   13.7860   20.7440 C   0  0  2  0  0  0  0  0  0  0  0  0
    2.2850   13.4690   21.2000 H   0  0  0  0  0  0  0  0  0  0  0  0
    0.4010   14.1770   21.8980 C   0  0  0  0  0  0  0  0  0  0  0  0
    0.8570   14.9210   22.5610 H   0  0  0  0  0  0  0  0  0  0  0  0
    0.1420   13.3090   22.5130 H   0  0  0  0  0  0  0  0  0  0  0  0
   -0.5350   14.5980   21.5160 H   0  0  0  0  0  0  0  0  0  0  0  0
    1.6140   14.9610   19.7850 C   0  0  0  0  0  0  0  0  0  0  0  0
    1.4810   15.9140   20.3150 H   0  0  0  0  0  0  0  0  0  0  0  0
    0.8750   14.9490   18.9720 H   0  0  0  0  0  0  0  0  0  0  0  0
    2.9700   14.9320   19.1620 C   0  0  0  0  0  0  0  0  0  0  0  0
    3.2690   14.7940   17.8860 N   0  0  0  0  0  0  0  0  0  0  0  0
    4.6370   14.8270   17.7560 N   0  0  0  0  0  0  0  0  0  0  0  0
    5.1460   14.9970   18.9520 C   0  0  0  0  0  0  0  0  0  0  0  0
    4.1400   15.0720   19.8640 N   0  0  0  0  0  0  0  0  0  0  0  0
    6.1970   15.0700   19.1920 H   0  0  0  0  0  0  0  0  0  0  0  0
    4.2900   15.2670   21.2800 C   0  0  0  0  0  0  0  0  0  0  0  0
    4.6170   16.2910   21.4770 H   0  0  0  0  0  0  0  0  0  0  0  0
    5.0380   14.5620   21.6510 H   0  0  0  0  0  0  0  0  0  0  0  0
    3.3250   15.0920   21.7630 H   0  0  0  0  0  0  0  0  0  0  0  0
  1  7  1  0  0  0  0
  1 41  1  0  0  0  0
  2  1  2  0  0  0  0
  3  5  2  0  0  0  0
  3  2  1  0  0  0  0
  4  9  1  0  0  0  0
  4  3  1  0  0  0  0
  5  6  1  0  0  0  0
  6 11  1  0  0  0  0
  6  7  2  0  0  0  0
  7 10  1  0  0  0  0
  8  2  1  0  0  0  0
 11 19  1  0  0  0  0
 12 22  1  0  0  0  0
 12 13  1  0  0  0  0
 12 11  1  0  0  0  0
 13 14  1  0  0  0  0
 14 19  1  0  0  0  0
 14 15  2  0  0  0  0
 15 23  1  0  0  0  0
 16 24  1  0  0  0  0
 16 15  1  0  0  0  0
 17 16  2  0  0  0  0
 18 13  2  0  0  0  0
 18 17  1  0  0  0  0
 19 20  2  0  0  0  0
 21 12  1  0  0  0  0
 25 17  1  0  0  0  0
 26 27  1  0  0  0  0
 26 18  1  0  0  0  0
 28 26  1  0  0  0  0
 29 26  1  0  0  0  0
 30 31  1  0  0  0  0
 30  4  1  0  0  0  0
 31 36  1  0  0  0  0
 32 37  1  0  0  0  0
 32 31  1  0  0  0  0
 33 32  1  0  0  0  0
 33 30  1  0  0  0  0
 34 30  1  0  0  0  0
 35 31  1  0  0  0  0
 38 32  1  0  0  0  0
 39 33  1  0  0  0  0
 40 33  1  0  0  0  0
 41 42  1  1  0  0  0
 41 43  1  0  0  0  0
 43 45  1  0  0  0  0
 43 44  1  0  0  0  0
 46 43  1  0  0  0  0
 47 48  1  0  0  0  0
 47 41  1  0  0  0  0
 49 47  1  0  0  0  0
 50 47  1  0  0  0  0
 50 54  1  0  0  0  0
 51 50  2  0  0  0  0
 52 51  1  0  0  0  0
 52 53  2  0  0  0  0
 53 55  1  0  0  0  0
 53 54  1  0  0  0  0
 54 56  1  0  0  0  0
 56 57  1  0  0  0  0
 56 58  1  0  0  0  0
 56 59  1  0  0  0  0
M  END
>  <MODEL>
5

>  <REMARK>
 VINA RESULT:    -7.378      4.286      8.011
 INTER + INTRA:         -11.604
 INTER:                 -10.657
 INTRA:                  -0.947
 UNBOUND:                -1.207
  Name = 
  8 active torsions:
  status: ('A' for Active; 'I' for Inactive)
    1  A    between atoms: C_1  and  C_2
    2  A    between atoms: C_2  and  C_3
    3  A    between atoms: C_2  and  C_10
    4  A    between atoms: C_3  and  C_4
    5  A    between atoms: N_8  and  C_9
    6  A    between atoms: N_13  and  C_14
    7  A    between atoms: C_19  and  N_21
    8  A    between atoms: C_28  and  C_29
                            x       y       z     vdW  Elec       q    Type
                         _______ _______ _______ _____ _____    ______ ____

>  <TORSDO>
F 8

$$$$
=
 OpenBabel07192307433D

 59 63  0  0  1  0  0  0  0  0999 V2000
    5.0850    4.5510   17.4000 C   0  0  0  0  0  0  0  0  0  0  0  0
    4.4610    3.4480   17.9860 C   0  0  0  0  0  0  0  0  0  0  0  0
    3.2830    3.6240   18.7030 C   0  0  0  0  0  0  0  0  0  0  0  0
    2.6880    2.4910   19.3070 N   0  0  0  0  0  0  0  0  0  0  0  0
    2.7340    4.8400   18.8800 N   0  0  0  0  0  0  0  0  0  0  0  0
    3.3300    5.9220   18.3270 C   0  0  0  0  0  0  0  0  0  0  0  0
    4.4980    5.8080   17.5830 C   0  0  0  0  0  0  0  0  0  0  0  0
    4.8900    2.4550   17.8990 H   0  0  0  0  0  0  0  0  0  0  0  0
    2.6180    1.7640   18.6010 H   0  0  0  0  0  0  0  0  0  0  0  0
    4.9700    6.6810   17.1440 H   0  0  0  0  0  0  0  0  0  0  0  0
    2.7010    7.1600   18.5570 N   0  0  0  0  0  0  0  0  0  0  0  0
    1.9580    7.3680   19.7880 C   0  0  0  0  0  0  0  0  0  0  0  0
    1.4620    8.7730   19.6460 C   0  0  0  0  0  0  0  0  0  0  0  0
    1.9020    9.3010   18.4340 C   0  0  0  0  0  0  0  0  0  0  0  0
    1.5990   10.5870   18.0270 C   0  0  0  0  0  0  0  0  0  0  0  0
    0.8200   11.3650   18.8830 C   0  0  0  0  0  0  0  0  0  0  0  0
    0.3690   10.8460   20.1110 C   0  0  0  0  0  0  0  0  0  0  0  0
    0.6840    9.5350   20.5140 C   0  0  0  0  0  0  0  0  0  0  0  0
    2.6950    8.2790   17.7370 C   0  0  0  0  0  0  0  0  0  0  0  0
    3.2060    8.4780   16.6520 O   0  0  0  0  0  0  0  0  0  0  0  0
    1.1230    6.6610   19.8420 H   0  0  0  0  0  0  0  0  0  0  0  0
    2.6280    7.2740   20.6490 H   0  0  0  0  0  0  0  0  0  0  0  0
    1.9560   10.9690   17.0760 H   0  0  0  0  0  0  0  0  0  0  0  0
    0.5590   12.3830   18.5990 H   0  0  0  0  0  0  0  0  0  0  0  0
   -0.2380   11.4840   20.7560 H   0  0  0  0  0  0  0  0  0  0  0  0
    0.2070    8.9710   21.8260 C   0  0  0  0  0  0  0  0  0  0  0  0
    1.2370    8.5810   22.6250 F   0  0  0  0  0  0  0  0  0  0  0  0
   -0.5990    7.8820   21.6940 F   0  0  0  0  0  0  0  0  0  0  0  0
   -0.5030    9.8790   22.5490 F   0  0  0  0  0  0  0  0  0  0  0  0
    1.4670    2.6000   20.0660 C   0  0  0  0  0  0  0  0  0  0  0  0
    1.6590    2.1370   21.5290 C   0  0  0  0  0  0  0  0  0  0  0  0
    1.9680    3.6010   21.9030 C   0  0  0  0  0  0  0  0  0  0  0  0
    1.2190    4.0220   20.6220 C   0  0  0  0  0  0  0  0  0  0  0  0
    0.6210    2.1320   19.5520 H   0  0  0  0  0  0  0  0  0  0  0  0
    0.7380    1.7550   21.9870 H   0  0  0  0  0  0  0  0  0  0  0  0
    2.4630    1.4220   21.7230 H   0  0  0  0  0  0  0  0  0  0  0  0
    3.0360    3.8430   21.8890 H   0  0  0  0  0  0  0  0  0  0  0  0
    1.5350    3.9520   22.8430 H   0  0  0  0  0  0  0  0  0  0  0  0
    0.1570    4.2410   20.7890 H   0  0  0  0  0  0  0  0  0  0  0  0
    1.6610    4.8620   20.0780 H   0  0  0  0  0  0  0  0  0  0  0  0
    6.3880    4.4280   16.6190 C   0  0  2  0  0  0  0  0  0  0  0  0
    6.4960    3.3800   16.3040 H   0  0  0  0  0  0  0  0  0  0  0  0
    7.5990    4.7490   17.5080 C   0  0  0  0  0  0  0  0  0  0  0  0
    7.4040    4.5240   18.5620 H   0  0  0  0  0  0  0  0  0  0  0  0
    7.8700    5.8070   17.4450 H   0  0  0  0  0  0  0  0  0  0  0  0
    8.4760    4.1680   17.1980 H   0  0  0  0  0  0  0  0  0  0  0  0
    6.3260    5.3210   15.3630 C   0  0  0  0  0  0  0  0  0  0  0  0
    7.1830    6.0060   15.3500 H   0  0  0  0  0  0  0  0  0  0  0  0
    5.4240    5.9480   15.4070 H   0  0  0  0  0  0  0  0  0  0  0  0
    6.2840    4.5620   14.0780 C   0  0  0  0  0  0  0  0  0  0  0  0
    5.3840    3.6820   13.6890 N   0  0  0  0  0  0  0  0  0  0  0  0
    5.7300    3.2330   12.4370 N   0  0  0  0  0  0  0  0  0  0  0  0
    6.8270    3.8560   12.0810 C   0  0  0  0  0  0  0  0  0  0  0  0
    7.2090    4.7010   13.0750 N   0  0  0  0  0  0  0  0  0  0  0  0
    7.3560    3.7300   11.1470 H   0  0  0  0  0  0  0  0  0  0  0  0
    8.3560    5.5680   13.0590 C   0  0  0  0  0  0  0  0  0  0  0  0
    8.5270    5.9680   14.0620 H   0  0  0  0  0  0  0  0  0  0  0  0
    8.1620    6.3870   12.3630 H   0  0  0  0  0  0  0  0  0  0  0  0
    9.2280    4.9920   12.7420 H   0  0  0  0  0  0  0  0  0  0  0  0
  1  7  2  0  0  0  0
  1  2  1  0  0  0  0
  2  3  2  0  0  0  0
  3  5  1  0  0  0  0
  3  4  1  0  0  0  0
  4 30  1  0  0  0  0
  6 11  1  0  0  0  0
  6  5  2  0  0  0  0
  7  6  1  0  0  0  0
  8  2  1  0  0  0  0
  9  4  1  0  0  0  0
 10  7  1  0  0  0  0
 11 12  1  0  0  0  0
 12 21  1  0  0  0  0
 12 22  1  0  0  0  0
 13 12  1  0  0  0  0
 13 18  1  0  0  0  0
 14 13  2  0  0  0  0
 15 14  1  0  0  0  0
 15 16  2  0  0  0  0
 16 17  1  0  0  0  0
 17 18  2  0  0  0  0
 17 25  1  0  0  0  0
 18 26  1  0  0  0  0
 19 14  1  0  0  0  0
 19 11  1  0  0  0  0
 20 19  2  0  0  0  0
 23 15  1  0  0  0  0
 24 16  1  0  0  0  0
 26 29  1  0  0  0  0
 26 27  1  0  0  0  0
 28 26  1  0  0  0  0
 30 33  1  0  0  0  0
 30 31  1  0  0  0  0
 31 36  1  0  0  0  0
 31 32  1  0  0  0  0
 31 35  1  0  0  0  0
 32 38  1  0  0  0  0
 33 39  1  0  0  0  0
 33 32  1  0  0  0  0
 34 30  1  0  0  0  0
 37 32  1  0  0  0  0
 40 33  1  0  0  0  0
 41 42  1  6  0  0  0
 41  1  1  0  0  0  0
 41 43  1  0  0  0  0
 43 44  1  0  0  0  0
 45 43  1  0  0  0  0
 46 43  1  0  0  0  0
 47 49  1  0  0  0  0
 47 41  1  0  0  0  0
 48 47  1  0  0  0  0
 50 47  1  0  0  0  0
 51 50  2  0  0  0  0
 52 51  1  0  0  0  0
 53 52  2  0  0  0  0
 53 54  1  0  0  0  0
 54 50  1  0  0  0  0
 55 53  1  0  0  0  0
 56 54  1  0  0  0  0
 56 57  1  0  0  0  0
 58 56  1  0  0  0  0
 59 56  1  0  0  0  0
M  END
>  <MODEL>
6

>  <REMARK>
 VINA RESULT:    -7.365      2.313      3.266
 INTER + INTRA:         -11.586
 INTER:                 -11.811
 INTRA:                   0.225
 UNBOUND:                -1.207
  Name = 
  8 active torsions:
  status: ('A' for Active; 'I' for Inactive)
    1  A    between atoms: C_1  and  C_2
    2  A    between atoms: C_2  and  C_3
    3  A    between atoms: C_2  and  C_10
    4  A    between atoms: C_3  and  C_4
    5  A    between atoms: N_8  and  C_9
    6  A    between atoms: N_13  and  C_14
    7  A    between atoms: C_19  and  N_21
    8  A    between atoms: C_28  and  C_29
                            x       y       z     vdW  Elec       q    Type
                         _______ _______ _______ _____ _____    ______ ____

>  <TORSDO>
F 8

$$$$
=
 OpenBabel07192307433D

 59 63  0  0  1  0  0  0  0  0999 V2000
    4.2260    6.2110   17.0420 C   0  0  0  0  0  0  0  0  0  0  0  0
    3.7130    4.9170   17.1490 C   0  0  0  0  0  0  0  0  0  0  0  0
    2.6120    4.6780   17.9640 C   0  0  0  0  0  0  0  0  0  0  0  0
    2.1310    3.3520   18.0740 N   0  0  0  0  0  0  0  0  0  0  0  0
    2.0350    5.6570   18.6850 N   0  0  0  0  0  0  0  0  0  0  0  0
    2.5240    6.9170   18.6000 C   0  0  0  0  0  0  0  0  0  0  0  0
    3.6100    7.2230   17.7880 C   0  0  0  0  0  0  0  0  0  0  0  0
    4.1700    4.0900   16.6150 H   0  0  0  0  0  0  0  0  0  0  0  0
    2.0160    2.9850   17.1330 H   0  0  0  0  0  0  0  0  0  0  0  0
    3.9970    8.2350   17.7270 H   0  0  0  0  0  0  0  0  0  0  0  0
    1.8740    7.8880   19.3840 N   0  0  0  0  0  0  0  0  0  0  0  0
    1.5460    9.1780   18.8000 C   0  0  0  0  0  0  0  0  0  0  0  0
    0.8810    9.8970   19.9320 C   0  0  0  0  0  0  0  0  0  0  0  0
    0.8400    9.0690   21.0500 C   0  0  0  0  0  0  0  0  0  0  0  0
    0.2810    9.4640   22.2510 C   0  0  0  0  0  0  0  0  0  0  0  0
   -0.2570   10.7490   22.3170 C   0  0  0  0  0  0  0  0  0  0  0  0
   -0.2240   11.5980   21.1950 C   0  0  0  0  0  0  0  0  0  0  0  0
    0.3490   11.1830   19.9780 C   0  0  0  0  0  0  0  0  0  0  0  0
    1.4690    7.7850   20.7070 C   0  0  0  0  0  0  0  0  0  0  0  0
    1.5630    6.8710   21.5030 O   0  0  0  0  0  0  0  0  0  0  0  0
    2.4630    9.6910   18.4940 H   0  0  0  0  0  0  0  0  0  0  0  0
    0.8550    9.0420   17.9610 H   0  0  0  0  0  0  0  0  0  0  0  0
    0.2650    8.7940   23.1050 H   0  0  0  0  0  0  0  0  0  0  0  0
   -0.7060   11.0980   23.2460 H   0  0  0  0  0  0  0  0  0  0  0  0
   -0.6550   12.5960   21.2830 H   0  0  0  0  0  0  0  0  0  0  0  0
    0.3880   12.0830   18.7720 C   0  0  0  0  0  0  0  0  0  0  0  0
   -0.4550   11.6660   17.7890 F   0  0  0  0  0  0  0  0  0  0  0  0
    1.6180   12.1770   18.1980 F   0  0  0  0  0  0  0  0  0  0  0  0
    0.0130   13.3580   19.0680 F   0  0  0  0  0  0  0  0  0  0  0  0
    0.9950    3.0310   18.9010 C   0  0  0  0  0  0  0  0  0  0  0  0
    1.1930    1.6940   19.6540 C   0  0  0  0  0  0  0  0  0  0  0  0
    1.7680    2.5000   20.8360 C   0  0  0  0  0  0  0  0  0  0  0  0
    1.0260    3.7320   20.2800 C   0  0  0  0  0  0  0  0  0  0  0  0
    0.0520    3.1030   18.3490 H   0  0  0  0  0  0  0  0  0  0  0  0
    0.2500    1.1870   19.8900 H   0  0  0  0  0  0  0  0  0  0  0  0
    1.8740    0.9670   19.2040 H   0  0  0  0  0  0  0  0  0  0  0  0
    2.8600    2.5960   20.8150 H   0  0  0  0  0  0  0  0  0  0  0  0
    1.4600    2.1700   21.8310 H   0  0  0  0  0  0  0  0  0  0  0  0
    0.0290    3.8750   20.7140 H   0  0  0  0  0  0  0  0  0  0  0  0
    1.5710    4.6780   20.3530 H   0  0  0  0  0  0  0  0  0  0  0  0
    5.4420    6.5350   16.1820 C   0  0  2  0  0  0  0  0  0  0  0  0
    5.4860    7.6260   16.0560 H   0  0  0  0  0  0  0  0  0  0  0  0
    5.3020    5.9330   14.7760 C   0  0  0  0  0  0  0  0  0  0  0  0
    5.4150    4.8430   14.7830 H   0  0  0  0  0  0  0  0  0  0  0  0
    6.0590    6.3340   14.0940 H   0  0  0  0  0  0  0  0  0  0  0  0
    4.3210    6.1660   14.3480 H   0  0  0  0  0  0  0  0  0  0  0  0
    6.7230    6.0650   16.9000 C   0  0  0  0  0  0  0  0  0  0  0  0
    7.3920    5.5700   16.1830 H   0  0  0  0  0  0  0  0  0  0  0  0
    6.4610    5.3110   17.6560 H   0  0  0  0  0  0  0  0  0  0  0  0
    7.4690    7.1570   17.5930 C   0  0  0  0  0  0  0  0  0  0  0  0
    7.5890    8.4150   17.2190 N   0  0  0  0  0  0  0  0  0  0  0  0
    8.3560    9.0720   18.1510 N   0  0  0  0  0  0  0  0  0  0  0  0
    8.6770    8.2070   19.0820 C   0  0  0  0  0  0  0  0  0  0  0  0
    8.1420    6.9960   18.7780 N   0  0  0  0  0  0  0  0  0  0  0  0
    9.2730    8.4100   19.9600 H   0  0  0  0  0  0  0  0  0  0  0  0
    8.2590    5.7940   19.5570 C   0  0  0  0  0  0  0  0  0  0  0  0
    8.3150    6.0480   20.6180 H   0  0  0  0  0  0  0  0  0  0  0  0
    9.1690    5.2710   19.2540 H   0  0  0  0  0  0  0  0  0  0  0  0
    7.3810    5.1700   19.3770 H   0  0  0  0  0  0  0  0  0  0  0  0
  1  2  2  0  0  0  0
  1  7  1  0  0  0  0
  2  3  1  0  0  0  0
  3  4  1  0  0  0  0
  3  5  2  0  0  0  0
  4 30  1  0  0  0  0
  6  5  1  0  0  0  0
  6 11  1  0  0  0  0
  7  6  2  0  0  0  0
  8  2  1  0  0  0  0
  9  4  1  0  0  0  0
 10  7  1  0  0  0  0
 11 19  1  0  0  0  0
 12 11  1  0  0  0  0
 12 13  1  0  0  0  0
 13 18  2  0  0  0  0
 13 14  1  0  0  0  0
 14 15  2  0  0  0  0
 15 16  1  0  0  0  0
 15 23  1  0  0  0  0
 16 24  1  0  0  0  0
 17 25  1  0  0  0  0
 17 16  2  0  0  0  0
 18 17  1  0  0  0  0
 19 14  1  0  0  0  0
 19 20  2  0  0  0  0
 21 12  1  0  0  0  0
 22 12  1  0  0  0  0
 26 29  1  0  0  0  0
 26 18  1  0  0  0  0
 27 26  1  0  0  0  0
 28 26  1  0  0  0  0
 30 31  1  0  0  0  0
 30 33  1  0  0  0  0
 31 35  1  0  0  0  0
 31 32  1  0  0  0  0
 32 38  1  0  0  0  0
 33 40  1  0  0  0  0
 33 39  1  0  0  0  0
 33 32  1  0  0  0  0
 34 30  1  0  0  0  0
 36 31  1  0  0  0  0
 37 32  1  0  0  0  0
 41 42  1  6  0  0  0
 41 47  1  0  0  0  0
 41  1  1  0  0  0  0
 43 44  1  0  0  0  0
 43 41  1  0  0  0  0
 45 43  1  0  0  0  0
 46 43  1  0  0  0  0
 47 50  1  0  0  0  0
 47 49  1  0  0  0  0
 48 47  1  0  0  0  0
 50 54  1  0  0  0  0
 51 50  2  0  0  0  0
 51 52  1  0  0  0  0
 52 53  2  0  0  0  0
 53 55  1  0  0  0  0
 54 53  1  0  0  0  0
 54 56  1  0  0  0  0
 56 57  1  0  0  0  0
 58 56  1  0  0  0  0
 59 56  1  0  0  0  0
M  END
>  <MODEL>
7

>  <REMARK>
 VINA RESULT:    -7.134      2.109      2.630
 INTER + INTRA:         -11.261
 INTER:                 -10.759
 INTRA:                  -0.502
 UNBOUND:                -1.207
  Name = 
  8 active torsions:
  status: ('A' for Active; 'I' for Inactive)
    1  A    between atoms: C_1  and  C_2
    2  A    between atoms: C_2  and  C_3
    3  A    between atoms: C_2  and  C_10
    4  A    between atoms: C_3  and  C_4
    5  A    between atoms: N_8  and  C_9
    6  A    between atoms: N_13  and  C_14
    7  A    between atoms: C_19  and  N_21
    8  A    between atoms: C_28  and  C_29
                            x       y       z     vdW  Elec       q    Type
                         _______ _______ _______ _____ _____    ______ ____

>  <TORSDO>
F 8

$$$$
=
 OpenBabel07192307433D

 59 63  0  0  1  0  0  0  0  0999 V2000
    4.1350    6.9590   17.4010 C   0  0  0  0  0  0  0  0  0  0  0  0
    4.1190    5.8310   18.2240 C   0  0  0  0  0  0  0  0  0  0  0  0
    3.1490    5.7160   19.2130 C   0  0  0  0  0  0  0  0  0  0  0  0
    3.1730    4.5750   20.0500 N   0  0  0  0  0  0  0  0  0  0  0  0
    2.2330    6.6790   19.4270 N   0  0  0  0  0  0  0  0  0  0  0  0
    2.2400    7.7830   18.6440 C   0  0  0  0  0  0  0  0  0  0  0  0
    3.1710    7.9480   17.6260 C   0  0  0  0  0  0  0  0  0  0  0  0
    4.8610    5.0480   18.1110 H   0  0  0  0  0  0  0  0  0  0  0  0
    3.2310    3.7540   19.4530 H   0  0  0  0  0  0  0  0  0  0  0  0
    3.1710    8.8370   17.0040 H   0  0  0  0  0  0  0  0  0  0  0  0
    1.2560    8.7490   18.9280 N   0  0  0  0  0  0  0  0  0  0  0  0
    0.2280    9.0360   17.9400 C   0  0  0  0  0  0  0  0  0  0  0  0
   -0.5960   10.0890   18.6130 C   0  0  0  0  0  0  0  0  0  0  0  0
   -0.0690   10.3580   19.8730 C   0  0  0  0  0  0  0  0  0  0  0  0
   -0.6230   11.2900   20.7300 C   0  0  0  0  0  0  0  0  0  0  0  0
   -1.7560   11.9740   20.2900 C   0  0  0  0  0  0  0  0  0  0  0  0
   -2.3010   11.7130   19.0190 C   0  0  0  0  0  0  0  0  0  0  0  0
   -1.7260   10.7610   18.1560 C   0  0  0  0  0  0  0  0  0  0  0  0
    1.1100    9.5050   20.0820 C   0  0  0  0  0  0  0  0  0  0  0  0
    1.7630    9.5330   21.1070 O   0  0  0  0  0  0  0  0  0  0  0  0
    0.6890    9.4230   17.0260 H   0  0  0  0  0  0  0  0  0  0  0  0
   -0.3650    8.1360   17.7480 H   0  0  0  0  0  0  0  0  0  0  0  0
   -0.1880   11.4780   21.7070 H   0  0  0  0  0  0  0  0  0  0  0  0
   -2.2230   12.7170   20.9350 H   0  0  0  0  0  0  0  0  0  0  0  0
   -3.1880   12.2660   18.7070 H   0  0  0  0  0  0  0  0  0  0  0  0
   -2.3030   10.4730   16.7950 C   0  0  0  0  0  0  0  0  0  0  0  0
   -3.6420   10.2420   16.8400 F   0  0  0  0  0  0  0  0  0  0  0  0
   -1.7540    9.3860   16.1860 F   0  0  0  0  0  0  0  0  0  0  0  0
   -2.1320   11.5130   15.9330 F   0  0  0  0  0  0  0  0  0  0  0  0
    2.1990    4.3900   21.0960 C   0  0  0  0  0  0  0  0  0  0  0  0
    0.8390    3.9130   20.5340 C   0  0  0  0  0  0  0  0  0  0  0  0
    1.3030    2.4610   20.7730 C   0  0  0  0  0  0  0  0  0  0  0  0
    2.3120    3.0160   21.7990 C   0  0  0  0  0  0  0  0  0  0  0  0
    2.1340    5.2610   21.7550 H   0  0  0  0  0  0  0  0  0  0  0  0
   -0.0140    4.2050   21.1600 H   0  0  0  0  0  0  0  0  0  0  0  0
    0.6110    4.1700   19.4960 H   0  0  0  0  0  0  0  0  0  0  0  0
    1.7730    2.0000   19.8970 H   0  0  0  0  0  0  0  0  0  0  0  0
    0.5470    1.7810   21.1710 H   0  0  0  0  0  0  0  0  0  0  0  0
    1.9290    3.0250   22.8270 H   0  0  0  0  0  0  0  0  0  0  0  0
    3.2910    2.5290   21.8010 H   0  0  0  0  0  0  0  0  0  0  0  0
    5.1840    7.1540   16.3120 C   0  0  2  0  0  0  0  0  0  0  0  0
    5.3680    8.2340   16.2090 H   0  0  0  0  0  0  0  0  0  0  0  0
    4.6680    6.6640   14.9510 C   0  0  0  0  0  0  0  0  0  0  0  0
    5.0700    5.6790   14.6910 H   0  0  0  0  0  0  0  0  0  0  0  0
    4.9480    7.3530   14.1470 H   0  0  0  0  0  0  0  0  0  0  0  0
    3.5740    6.5900   14.9520 H   0  0  0  0  0  0  0  0  0  0  0  0
    6.4980    6.4630   16.7280 C   0  0  0  0  0  0  0  0  0  0  0  0
    7.0450    6.1340   15.8350 H   0  0  0  0  0  0  0  0  0  0  0  0
    6.2650    5.5570   17.3050 H   0  0  0  0  0  0  0  0  0  0  0  0
    7.3940    7.3130   17.5670 C   0  0  0  0  0  0  0  0  0  0  0  0
    7.6960    8.5840   17.3920 N   0  0  0  0  0  0  0  0  0  0  0  0
    8.5500    8.9680   18.3980 N   0  0  0  0  0  0  0  0  0  0  0  0
    8.7430    7.9290   19.1740 C   0  0  0  0  0  0  0  0  0  0  0  0
    8.0370    6.8710   18.6950 N   0  0  0  0  0  0  0  0  0  0  0  0
    9.3620    7.9020   20.0590 H   0  0  0  0  0  0  0  0  0  0  0  0
    7.9790    5.5560   19.2730 C   0  0  0  0  0  0  0  0  0  0  0  0
    6.9490    5.1920   19.2550 H   0  0  0  0  0  0  0  0  0  0  0  0
    8.3330    5.6140   20.3050 H   0  0  0  0  0  0  0  0  0  0  0  0
    8.6140    4.8860   18.6870 H   0  0  0  0  0  0  0  0  0  0  0  0
  1  7  2  0  0  0  0
  1  2  1  0  0  0  0
  2  3  2  0  0  0  0
  3  5  1  0  0  0  0
  3  4  1  0  0  0  0
  4 30  1  0  0  0  0
  6 11  1  0  0  0  0
  6  5  2  0  0  0  0
  7  6  1  0  0  0  0
  8  2  1  0  0  0  0
  9  4  1  0  0  0  0
 10  7  1  0  0  0  0
 11 19  1  0  0  0  0
 12 13  1  0  0  0  0
 12 11  1  0  0  0  0
 13 14  1  0  0  0  0
 14 19  1  0  0  0  0
 14 15  2  0  0  0  0
 15 23  1  0  0  0  0
 16 15  1  0  0  0  0
 16 24  1  0  0  0  0
 17 16  2  0  0  0  0
 18 13  2  0  0  0  0
 18 17  1  0  0  0  0
 19 20  2  0  0  0  0
 21 12  1  0  0  0  0
 22 12  1  0  0  0  0
 25 17  1  0  0  0  0
 26 27  1  0  0  0  0
 26 18  1  0  0  0  0
 28 26  1  0  0  0  0
 29 26  1  0  0  0  0
 30 34  1  0  0  0  0
 30 33  1  0  0  0  0
 31 32  1  0  0  0  0
 31 30  1  0  0  0  0
 31 35  1  0  0  0  0
 32 38  1  0  0  0  0
 32 33  1  0  0  0  0
 33 40  1  0  0  0  0
 33 39  1  0  0  0  0
 36 31  1  0  0  0  0
 37 32  1  0  0  0  0
 41 42  1  6  0  0  0
 41 47  1  0  0  0  0
 41  1  1  0  0  0  0
 43 46  1  0  0  0  0
 43 41  1  0  0  0  0
 44 43  1  0  0  0  0
 45 43  1  0  0  0  0
 47 49  1  0  0  0  0
 47 50  1  0  0  0  0
 48 47  1  0  0  0  0
 50 54  1  0  0  0  0
 51 50  2  0  0  0  0
 51 52  1  0  0  0  0
 52 53  2  0  0  0  0
 53 55  1  0  0  0  0
 54 53  1  0  0  0  0
 54 56  1  0  0  0  0
 56 58  1  0  0  0  0
 57 56  1  0  0  0  0
 59 56  1  0  0  0  0
M  END
>  <MODEL>
8

>  <REMARK>
 VINA RESULT:    -7.121      2.422      2.848
 INTER + INTRA:         -11.241
 INTER:                 -10.423
 INTRA:                  -0.818
 UNBOUND:                -1.207
  Name = 
  8 active torsions:
  status: ('A' for Active; 'I' for Inactive)
    1  A    between atoms: C_1  and  C_2
    2  A    between atoms: C_2  and  C_3
    3  A    between atoms: C_2  and  C_10
    4  A    between atoms: C_3  and  C_4
    5  A    between atoms: N_8  and  C_9
    6  A    between atoms: N_13  and  C_14
    7  A    between atoms: C_19  and  N_21
    8  A    between atoms: C_28  and  C_29
                            x       y       z     vdW  Elec       q    Type
                         _______ _______ _______ _____ _____    ______ ____

>  <TORSDO>
F 8

$$$$
=
 OpenBabel07192307433D

 59 63  0  0  1  0  0  0  0  0999 V2000
   -0.2430   11.9510   20.8900 C   0  0  0  0  0  0  0  0  0  0  0  0
   -1.4470   11.9770   20.1830 C   0  0  0  0  0  0  0  0  0  0  0  0
   -1.7020   11.0040   19.2230 C   0  0  0  0  0  0  0  0  0  0  0  0
   -2.9190   11.0710   18.5040 N   0  0  0  0  0  0  0  0  0  0  0  0
   -0.8050   10.0450   18.9260 N   0  0  0  0  0  0  0  0  0  0  0  0
    0.3710   10.0100   19.5950 C   0  0  0  0  0  0  0  0  0  0  0  0
    0.6770   10.9430   20.5790 C   0  0  0  0  0  0  0  0  0  0  0  0
   -2.1830   12.7540   20.3630 H   0  0  0  0  0  0  0  0  0  0  0  0
   -3.6730   11.1710   19.1790 H   0  0  0  0  0  0  0  0  0  0  0  0
    1.6220   10.9090   21.1100 H   0  0  0  0  0  0  0  0  0  0  0  0
    1.2610    8.9820   19.2300 N   0  0  0  0  0  0  0  0  0  0  0  0
    1.2290    7.7190   19.9480 C   0  0  0  0  0  0  0  0  0  0  0  0
    2.2990    6.9230   19.2690 C   0  0  0  0  0  0  0  0  0  0  0  0
    2.8710    7.6830   18.2530 C   0  0  0  0  0  0  0  0  0  0  0  0
    3.8900    7.2080   17.4490 C   0  0  0  0  0  0  0  0  0  0  0  0
    4.3440    5.9100   17.6860 C   0  0  0  0  0  0  0  0  0  0  0  0
    3.7750    5.1290   18.7090 C   0  0  0  0  0  0  0  0  0  0  0  0
    2.7370    5.6260   19.5210 C   0  0  0  0  0  0  0  0  0  0  0  0
    2.2120    8.9970   18.2210 C   0  0  0  0  0  0  0  0  0  0  0  0
    2.5160    9.8600   17.4210 O   0  0  0  0  0  0  0  0  0  0  0  0
    1.4730    7.8850   21.0020 H   0  0  0  0  0  0  0  0  0  0  0  0
    0.2500    7.2450   19.8260 H   0  0  0  0  0  0  0  0  0  0  0  0
    4.3170    7.8260   16.6650 H   0  0  0  0  0  0  0  0  0  0  0  0
    5.1450    5.4990   17.0750 H   0  0  0  0  0  0  0  0  0  0  0  0
    4.1540    4.1180   18.8670 H   0  0  0  0  0  0  0  0  0  0  0  0
    2.1210    4.7970   20.6170 C   0  0  0  0  0  0  0  0  0  0  0  0
    2.3750    5.3050   21.8530 F   0  0  0  0  0  0  0  0  0  0  0  0
    2.5610    3.5090   20.6430 F   0  0  0  0  0  0  0  0  0  0  0  0
    0.7660    4.7290   20.5120 F   0  0  0  0  0  0  0  0  0  0  0  0
   -3.2500   10.0970   17.4940 C   0  0  0  0  0  0  0  0  0  0  0  0
   -4.1720   10.6920   16.4040 C   0  0  0  0  0  0  0  0  0  0  0  0
   -2.9080   11.0390   15.5910 C   0  0  0  0  0  0  0  0  0  0  0  0
   -2.1630    9.9590   16.4010 C   0  0  0  0  0  0  0  0  0  0  0  0
   -3.6120    9.1600   17.9310 H   0  0  0  0  0  0  0  0  0  0  0  0
   -4.8090    9.9420   15.9200 H   0  0  0  0  0  0  0  0  0  0  0  0
   -4.7950   11.5430   16.6910 H   0  0  0  0  0  0  0  0  0  0  0  0
   -2.5370   12.0550   15.7660 H   0  0  0  0  0  0  0  0  0  0  0  0
   -2.9730   10.8640   14.5150 H   0  0  0  0  0  0  0  0  0  0  0  0
   -2.1610    8.9740   15.9180 H   0  0  0  0  0  0  0  0  0  0  0  0
   -1.1350   10.2090   16.6770 H   0  0  0  0  0  0  0  0  0  0  0  0
    0.1060   13.0000   21.9390 C   0  0  2  0  0  0  0  0  0  0  0  0
    0.9820   12.6420   22.4980 H   0  0  0  0  0  0  0  0  0  0  0  0
   -1.0310   13.1620   22.9600 C   0  0  0  0  0  0  0  0  0  0  0  0
   -1.9730   13.4510   22.4810 H   0  0  0  0  0  0  0  0  0  0  0  0
   -0.7940   13.9310   23.7020 H   0  0  0  0  0  0  0  0  0  0  0  0
   -1.2050   12.2260   23.5020 H   0  0  0  0  0  0  0  0  0  0  0  0
    0.4680   14.3290   21.2440 C   0  0  0  0  0  0  0  0  0  0  0  0
    0.1370   15.1740   21.8610 H   0  0  0  0  0  0  0  0  0  0  0  0
   -0.0790   14.4020   20.2930 H   0  0  0  0  0  0  0  0  0  0  0  0
    1.9210   14.4810   20.9410 C   0  0  0  0  0  0  0  0  0  0  0  0
    2.8900   14.8020   21.7750 N   0  0  0  0  0  0  0  0  0  0  0  0
    4.0730   14.8240   21.0770 N   0  0  0  0  0  0  0  0  0  0  0  0
    3.8070   14.5040   19.8340 C   0  0  0  0  0  0  0  0  0  0  0  0
    2.4730   14.2770   19.7020 N   0  0  0  0  0  0  0  0  0  0  0  0
    4.5240   14.4280   19.0290 H   0  0  0  0  0  0  0  0  0  0  0  0
    1.7910   13.8910   18.4970 C   0  0  0  0  0  0  0  0  0  0  0  0
    1.3740   12.8880   18.6160 H   0  0  0  0  0  0  0  0  0  0  0  0
    2.5100   13.8970   17.6740 H   0  0  0  0  0  0  0  0  0  0  0  0
    0.9840   14.6030   18.3070 H   0  0  0  0  0  0  0  0  0  0  0  0
  1 41  1  0  0  0  0
  2  8  1  0  0  0  0
  2  1  2  0  0  0  0
  3  2  1  0  0  0  0
  4  9  1  0  0  0  0
  4  3  1  0  0  0  0
  5  3  2  0  0  0  0
  5  6  1  0  0  0  0
  6  7  2  0  0  0  0
  7  1  1  0  0  0  0
  7 10  1  0  0  0  0
 11  6  1  0  0  0  0
 11 12  1  0  0  0  0
 12 21  1  0  0  0  0
 13 18  1  0  0  0  0
 13 12  1  0  0  0  0
 14 13  2  0  0  0  0
 15 16  2  0  0  0  0
 15 14  1  0  0  0  0
 16 17  1  0  0  0  0
 17 25  1  0  0  0  0
 17 18  2  0  0  0  0
 18 26  1  0  0  0  0
 19 14  1  0  0  0  0
 19 11  1  0  0  0  0
 20 19  2  0  0  0  0
 22 12  1  0  0  0  0
 23 15  1  0  0  0  0
 24 16  1  0  0  0  0
 26 28  1  0  0  0  0
 26 27  1  0  0  0  0
 29 26  1  0  0  0  0
 30 34  1  0  0  0  0
 30  4  1  0  0  0  0
 31 36  1  0  0  0  0
 31 30  1  0  0  0  0
 32 37  1  0  0  0  0
 32 33  1  0  0  0  0
 32 31  1  0  0  0  0
 33 40  1  0  0  0  0
 33 30  1  0  0  0  0
 35 31  1  0  0  0  0
 38 32  1  0  0  0  0
 39 33  1  0  0  0  0
 41 42  1  1  0  0  0
 41 43  1  0  0  0  0
 43 46  1  0  0  0  0
 43 45  1  0  0  0  0
 44 43  1  0  0  0  0
 47 48  1  0  0  0  0
 47 41  1  0  0  0  0
 49 47  1  0  0  0  0
 50 47  1  0  0  0  0
 50 51  2  0  0  0  0
 52 51  1  0  0  0  0
 53 52  2  0  0  0  0
 54 53  1  0  0  0  0
 54 50  1  0  0  0  0
 55 53  1  0  0  0  0
 56 57  1  0  0  0  0
 56 54  1  0  0  0  0
 58 56  1  0  0  0  0
 59 56  1  0  0  0  0
M  END
>  <MODEL>
9

>  <REMARK>
 VINA RESULT:    -7.011      3.501      7.783
 INTER + INTRA:         -11.086
 INTER:                 -10.040
 INTRA:                  -1.047
 UNBOUND:                -1.207
  Name = 
  8 active torsions:
  status: ('A' for Active; 'I' for Inactive)
    1  A    between atoms: C_1  and  C_2
    2  A    between atoms: C_2  and  C_3
    3  A    between atoms: C_2  and  C_10
    4  A    between atoms: C_3  and  C_4
    5  A    between atoms: N_8  and  C_9
    6  A    between atoms: N_13  and  C_14
    7  A    between atoms: C_19  and  N_21
    8  A    between atoms: C_28  and  C_29
                            x       y       z     vdW  Elec       q    Type
                         _______ _______ _______ _____ _____    ______ ____

>  <TORSDO>
F 8

$$$$
=
 OpenBabel07192307433D

 59 63  0  0  1  0  0  0  0  0999 V2000
    3.9010    7.2880   17.6450 C   0  0  0  0  0  0  0  0  0  0  0  0
    3.8830    6.0470   18.2850 C   0  0  0  0  0  0  0  0  0  0  0  0
    2.9720    5.8140   19.3090 C   0  0  0  0  0  0  0  0  0  0  0  0
    2.9940    4.5560   19.9560 N   0  0  0  0  0  0  0  0  0  0  0  0
    2.1170    6.7640   19.7300 N   0  0  0  0  0  0  0  0  0  0  0  0
    2.1270    7.9760   19.1280 C   0  0  0  0  0  0  0  0  0  0  0  0
    3.0000    8.2650   18.0860 C   0  0  0  0  0  0  0  0  0  0  0  0
    4.5790    5.2640   18.0020 H   0  0  0  0  0  0  0  0  0  0  0  0
    2.9770    3.8370   19.2380 H   0  0  0  0  0  0  0  0  0  0  0  0
    3.0030    9.2390   17.6090 H   0  0  0  0  0  0  0  0  0  0  0  0
    1.2090    8.9220   19.6230 N   0  0  0  0  0  0  0  0  0  0  0  0
    0.3330    9.6220   18.6980 C   0  0  0  0  0  0  0  0  0  0  0  0
   -0.4650   10.5100   19.6020 C   0  0  0  0  0  0  0  0  0  0  0  0
   -0.0650   10.3110   20.9200 C   0  0  0  0  0  0  0  0  0  0  0  0
   -0.6290   10.9950   21.9820 C   0  0  0  0  0  0  0  0  0  0  0  0
   -1.6360   11.9150   21.6910 C   0  0  0  0  0  0  0  0  0  0  0  0
   -2.0510   12.1270   20.3630 C   0  0  0  0  0  0  0  0  0  0  0  0
   -1.4680   11.4240   19.2910 C   0  0  0  0  0  0  0  0  0  0  0  0
    0.9990    9.2970   20.9420 C   0  0  0  0  0  0  0  0  0  0  0  0
    1.5270    8.9270   21.9720 O   0  0  0  0  0  0  0  0  0  0  0  0
    0.9310   10.2130   17.9960 H   0  0  0  0  0  0  0  0  0  0  0  0
   -0.3130    8.9060   18.1810 H   0  0  0  0  0  0  0  0  0  0  0  0
   -0.2950   10.8170   22.9990 H   0  0  0  0  0  0  0  0  0  0  0  0
   -2.1040   12.4740   22.4990 H   0  0  0  0  0  0  0  0  0  0  0  0
   -2.8410   12.8540   20.1720 H   0  0  0  0  0  0  0  0  0  0  0  0
   -1.9060   11.6420   17.8680 C   0  0  0  0  0  0  0  0  0  0  0  0
   -1.7490   10.5290   17.1020 F   0  0  0  0  0  0  0  0  0  0  0  0
   -1.2250   12.6350   17.2310 F   0  0  0  0  0  0  0  0  0  0  0  0
   -3.2230   11.9740   17.7790 F   0  0  0  0  0  0  0  0  0  0  0  0
    2.0790    4.2450   21.0260 C   0  0  0  0  0  0  0  0  0  0  0  0
    0.7430    3.6800   20.4900 C   0  0  0  0  0  0  0  0  0  0  0  0
    1.3340    2.2640   20.6460 C   0  0  0  0  0  0  0  0  0  0  0  0
    2.3320    2.8570   21.6610 C   0  0  0  0  0  0  0  0  0  0  0  0
    1.9680    5.0790   21.7260 H   0  0  0  0  0  0  0  0  0  0  0  0
   -0.1070    3.8730   21.1570 H   0  0  0  0  0  0  0  0  0  0  0  0
    0.4560    3.9610   19.4740 H   0  0  0  0  0  0  0  0  0  0  0  0
    1.8070    1.8810   19.7350 H   0  0  0  0  0  0  0  0  0  0  0  0
    0.6530    1.5050   21.0380 H   0  0  0  0  0  0  0  0  0  0  0  0
    1.9900    2.7900   22.7010 H   0  0  0  0  0  0  0  0  0  0  0  0
    3.3470    2.4540   21.6070 H   0  0  0  0  0  0  0  0  0  0  0  0
    4.8880    7.6130   16.5300 C   0  0  2  0  0  0  0  0  0  0  0  0
    4.7080    8.6500   16.2100 H   0  0  0  0  0  0  0  0  0  0  0  0
    4.6490    6.7240   15.3010 C   0  0  0  0  0  0  0  0  0  0  0  0
    3.9420    5.9140   15.5130 H   0  0  0  0  0  0  0  0  0  0  0  0
    5.5790    6.2620   14.9560 H   0  0  0  0  0  0  0  0  0  0  0  0
    4.2460    7.3100   14.4670 H   0  0  0  0  0  0  0  0  0  0  0  0
    6.3300    7.5020   17.0670 C   0  0  0  0  0  0  0  0  0  0  0  0
    6.3690    7.8580   18.1050 H   0  0  0  0  0  0  0  0  0  0  0  0
    6.9870    8.1630   16.4840 H   0  0  0  0  0  0  0  0  0  0  0  0
    6.9010    6.1250   16.9980 C   0  0  0  0  0  0  0  0  0  0  0  0
    6.9540    5.3240   15.9530 N   0  0  0  0  0  0  0  0  0  0  0  0
    7.5660    4.1540   16.3340 N   0  0  0  0  0  0  0  0  0  0  0  0
    7.8860    4.2680   17.6000 C   0  0  0  0  0  0  0  0  0  0  0  0
    7.4930    5.4850   18.0580 N   0  0  0  0  0  0  0  0  0  0  0  0
    8.3850    3.5200   18.2000 H   0  0  0  0  0  0  0  0  0  0  0  0
    7.6750    5.9920   19.3910 C   0  0  0  0  0  0  0  0  0  0  0  0
    7.8130    7.0760   19.3560 H   0  0  0  0  0  0  0  0  0  0  0  0
    8.5610    5.5210   19.8230 H   0  0  0  0  0  0  0  0  0  0  0  0
    6.7880    5.7550   19.9810 H   0  0  0  0  0  0  0  0  0  0  0  0
  1  7  2  0  0  0  0
  1  2  1  0  0  0  0
  2  3  2  0  0  0  0
  3  5  1  0  0  0  0
  3  4  1  0  0  0  0
  4 30  1  0  0  0  0
  6 11  1  0  0  0  0
  6  5  2  0  0  0  0
  7  6  1  0  0  0  0
  8  2  1  0  0  0  0
  9  4  1  0  0  0  0
 10  7  1  0  0  0  0
 11 19  1  0  0  0  0
 12 13  1  0  0  0  0
 12 11  1  0  0  0  0
 13 14  1  0  0  0  0
 14 19  1  0  0  0  0
 14 15  2  0  0  0  0
 15 23  1  0  0  0  0
 16 15  1  0  0  0  0
 16 24  1  0  0  0  0
 17 16  2  0  0  0  0
 18 13  2  0  0  0  0
 18 17  1  0  0  0  0
 19 20  2  0  0  0  0
 21 12  1  0  0  0  0
 22 12  1  0  0  0  0
 25 17  1  0  0  0  0
 26 18  1  0  0  0  0
 27 26  1  0  0  0  0
 28 26  1  0  0  0  0
 29 26  1  0  0  0  0
 30 33  1  0  0  0  0
 30 34  1  0  0  0  0
 31 32  1  0  0  0  0
 31 30  1  0  0  0  0
 31 35  1  0  0  0  0
 32 38  1  0  0  0  0
 32 33  1  0  0  0  0
 33 39  1  0  0  0  0
 36 31  1  0  0  0  0
 37 32  1  0  0  0  0
 40 33  1  0  0  0  0
 41 42  1  6  0  0  0
 41 47  1  0  0  0  0
 41  1  1  0  0  0  0
 43 44  1  0  0  0  0
 43 41  1  0  0  0  0
 45 43  1  0  0  0  0
 46 43  1  0  0  0  0
 47 48  1  0  0  0  0
 49 47  1  0  0  0  0
 50 47  1  0  0  0  0
 50 54  1  0  0  0  0
 51 52  1  0  0  0  0
 51 50  2  0  0  0  0
 52 53  2  0  0  0  0
 53 54  1  0  0  0  0
 53 55  1  0  0  0  0
 54 56  1  0  0  0  0
 56 58  1  0  0  0  0
 56 59  1  0  0  0  0
 57 56  1  0  0  0  0
M  END
>  <MODEL>
10

>  <REMARK>
 VINA RESULT:    -6.908      2.464      3.037
 INTER + INTRA:         -10.941
 INTER:                 -10.863
 INTRA:                  -0.078
 UNBOUND:                -1.207
  Name = 
  8 active torsions:
  status: ('A' for Active; 'I' for Inactive)
    1  A    between atoms: C_1  and  C_2
    2  A    between atoms: C_2  and  C_3
    3  A    between atoms: C_2  and  C_10
    4  A    between atoms: C_3  and  C_4
    5  A    between atoms: N_8  and  C_9
    6  A    between atoms: N_13  and  C_14
    7  A    between atoms: C_19  and  N_21
    8  A    between atoms: C_28  and  C_29
                            x       y       z     vdW  Elec       q    Type
                         _______ _______ _______ _____ _____    ______ ____

>  <TORSDO>
F 8

$$$$
=
 OpenBabel07192307433D

 59 63  0  0  1  0  0  0  0  0999 V2000
   -0.6660   11.4460   21.1580 C   0  0  0  0  0  0  0  0  0  0  0  0
   -1.5160   11.8720   20.1350 C   0  0  0  0  0  0  0  0  0  0  0  0
   -1.4290   11.2810   18.8790 C   0  0  0  0  0  0  0  0  0  0  0  0
   -2.2860   11.7510   17.8550 N   0  0  0  0  0  0  0  0  0  0  0  0
   -0.5240   10.3250   18.6030 N   0  0  0  0  0  0  0  0  0  0  0  0
    0.3150    9.9070   19.5800 C   0  0  0  0  0  0  0  0  0  0  0  0
    0.2650   10.4440   20.8610 C   0  0  0  0  0  0  0  0  0  0  0  0
   -2.2370   12.6650   20.3030 H   0  0  0  0  0  0  0  0  0  0  0  0
   -3.2330   11.7630   18.2230 H   0  0  0  0  0  0  0  0  0  0  0  0
    0.9410   10.1040   21.6390 H   0  0  0  0  0  0  0  0  0  0  0  0
    1.2380    8.9080   19.2190 N   0  0  0  0  0  0  0  0  0  0  0  0
    1.2250    7.6350   19.9200 C   0  0  0  0  0  0  0  0  0  0  0  0
    2.3280    6.8750   19.2510 C   0  0  0  0  0  0  0  0  0  0  0  0
    2.9000    7.6640   18.2560 C   0  0  0  0  0  0  0  0  0  0  0  0
    3.9460    7.2260   17.4650 C   0  0  0  0  0  0  0  0  0  0  0  0
    4.4280    5.9370   17.6940 C   0  0  0  0  0  0  0  0  0  0  0  0
    3.8600    5.1270   18.6960 C   0  0  0  0  0  0  0  0  0  0  0  0
    2.7950    5.5860   19.4940 C   0  0  0  0  0  0  0  0  0  0  0  0
    2.2070    8.9600   18.2280 C   0  0  0  0  0  0  0  0  0  0  0  0
    2.5040    9.8420   17.4450 O   0  0  0  0  0  0  0  0  0  0  0  0
    1.4450    7.7920   20.9800 H   0  0  0  0  0  0  0  0  0  0  0  0
    0.2610    7.1370   19.7730 H   0  0  0  0  0  0  0  0  0  0  0  0
    4.3710    7.8650   16.6980 H   0  0  0  0  0  0  0  0  0  0  0  0
    5.2520    5.5550   17.0930 H   0  0  0  0  0  0  0  0  0  0  0  0
    4.2630    4.1240   18.8470 H   0  0  0  0  0  0  0  0  0  0  0  0
    2.1810    4.7270   20.5670 C   0  0  0  0  0  0  0  0  0  0  0  0
    2.7140    3.4760   20.5940 F   0  0  0  0  0  0  0  0  0  0  0  0
    0.8360    4.5600   20.4310 F   0  0  0  0  0  0  0  0  0  0  0  0
    2.3720    5.2420   21.8120 F   0  0  0  0  0  0  0  0  0  0  0  0
   -2.2510   11.1860   16.5290 C   0  0  0  0  0  0  0  0  0  0  0  0
   -2.4420    9.6510   16.5550 C   0  0  0  0  0  0  0  0  0  0  0  0
   -3.9550    9.8850   16.3650 C   0  0  0  0  0  0  0  0  0  0  0  0
   -3.6080   11.2740   15.7920 C   0  0  0  0  0  0  0  0  0  0  0  0
   -1.3760   11.5230   15.9630 H   0  0  0  0  0  0  0  0  0  0  0  0
   -1.9710    9.1420   15.7050 H   0  0  0  0  0  0  0  0  0  0  0  0
   -2.1580    9.1300   17.4720 H   0  0  0  0  0  0  0  0  0  0  0  0
   -4.5160    9.9230   17.3060 H   0  0  0  0  0  0  0  0  0  0  0  0
   -4.4590    9.2000   15.6790 H   0  0  0  0  0  0  0  0  0  0  0  0
   -3.5070   11.2830   14.7000 H   0  0  0  0  0  0  0  0  0  0  0  0
   -4.2880   12.0800   16.0810 H   0  0  0  0  0  0  0  0  0  0  0  0
   -0.6970   12.0660   22.5500 C   0  0  2  0  0  0  0  0  0  0  0  0
    0.2510   11.8210   23.0510 H   0  0  0  0  0  0  0  0  0  0  0  0
   -1.8170   11.4540   23.4050 C   0  0  0  0  0  0  0  0  0  0  0  0
   -1.7030   10.3700   23.5140 H   0  0  0  0  0  0  0  0  0  0  0  0
   -2.8010   11.6340   22.9600 H   0  0  0  0  0  0  0  0  0  0  0  0
   -1.8270   11.8930   24.4090 H   0  0  0  0  0  0  0  0  0  0  0  0
   -0.8160   13.5990   22.4320 C   0  0  0  0  0  0  0  0  0  0  0  0
   -1.1490   13.8700   21.4210 H   0  0  0  0  0  0  0  0  0  0  0  0
    0.1760   14.0520   22.5670 H   0  0  0  0  0  0  0  0  0  0  0  0
   -1.7340   14.2180   23.4330 C   0  0  0  0  0  0  0  0  0  0  0  0
   -1.4400   14.6330   24.6490 N   0  0  0  0  0  0  0  0  0  0  0  0
   -2.5820   15.1390   25.2210 N   0  0  0  0  0  0  0  0  0  0  0  0
   -3.5480   15.0360   24.3400 C   0  0  0  0  0  0  0  0  0  0  0  0
   -3.0630   14.4680   23.2040 N   0  0  0  0  0  0  0  0  0  0  0  0
   -4.5730   15.3480   24.4800 H   0  0  0  0  0  0  0  0  0  0  0  0
   -3.8080   14.1960   22.0050 C   0  0  0  0  0  0  0  0  0  0  0  0
   -3.5430   13.2060   21.6250 H   0  0  0  0  0  0  0  0  0  0  0  0
   -3.5570   14.9560   21.2610 H   0  0  0  0  0  0  0  0  0  0  0  0
   -4.8740   14.2250   22.2390 H   0  0  0  0  0  0  0  0  0  0  0  0
  1 41  1  0  0  0  0
  2  8  1  0  0  0  0
  2  1  2  0  0  0  0
  3  2  1  0  0  0  0
  4  9  1  0  0  0  0
  4  3  1  0  0  0  0
  5  3  2  0  0  0  0
  5  6  1  0  0  0  0
  6  7  2  0  0  0  0
  7  1  1  0  0  0  0
  7 10  1  0  0  0  0
 11  6  1  0  0  0  0
 11 12  1  0  0  0  0
 12 21  1  0  0  0  0
 13 18  1  0  0  0  0
 13 12  1  0  0  0  0
 14 13  2  0  0  0  0
 15 16  2  0  0  0  0
 15 14  1  0  0  0  0
 16 17  1  0  0  0  0
 17 25  1  0  0  0  0
 17 18  2  0  0  0  0
 18 26  1  0  0  0  0
 19 14  1  0  0  0  0
 19 11  1  0  0  0  0
 20 19  2  0  0  0  0
 22 12  1  0  0  0  0
 23 15  1  0  0  0  0
 24 16  1  0  0  0  0
 26 27  1  0  0  0  0
 26 29  1  0  0  0  0
 28 26  1  0  0  0  0
 30 31  1  0  0  0  0
 30  4  1  0  0  0  0
 31 36  1  0  0  0  0
 32 31  1  0  0  0  0
 32 37  1  0  0  0  0
 33 40  1  0  0  0  0
 33 32  1  0  0  0  0
 33 30  1  0  0  0  0
 34 30  1  0  0  0  0
 35 31  1  0  0  0  0
 38 32  1  0  0  0  0
 39 33  1  0  0  0  0
 41 42  1  1  0  0  0
 41 43  1  0  0  0  0
 43 44  1  0  0  0  0
 43 46  1  0  0  0  0
 45 43  1  0  0  0  0
 47 41  1  0  0  0  0
 47 49  1  0  0  0  0
 47 50  1  0  0  0  0
 48 47  1  0  0  0  0
 50 51  2  0  0  0  0
 51 52  1  0  0  0  0
 53 55  1  0  0  0  0
 53 52  2  0  0  0  0
 54 50  1  0  0  0  0
 54 53  1  0  0  0  0
 56 59  1  0  0  0  0
 56 54  1  0  0  0  0
 57 56  1  0  0  0  0
 58 56  1  0  0  0  0
M  END
>  <MODEL>
11

>  <REMARK>
 VINA RESULT:    -6.809      4.115      9.094
 INTER + INTRA:         -10.802
 INTER:                 -10.191
 INTRA:                  -0.611
 UNBOUND:                -1.207
  Name = 
  8 active torsions:
  status: ('A' for Active; 'I' for Inactive)
    1  A    between atoms: C_1  and  C_2
    2  A    between atoms: C_2  and  C_3
    3  A    between atoms: C_2  and  C_10
    4  A    between atoms: C_3  and  C_4
    5  A    between atoms: N_8  and  C_9
    6  A    between atoms: N_13  and  C_14
    7  A    between atoms: C_19  and  N_21
    8  A    between atoms: C_28  and  C_29
                            x       y       z     vdW  Elec       q    Type
                         _______ _______ _______ _____ _____    ______ ____

>  <TORSDO>
F 8

$$$$
=
 OpenBabel07192307433D

 59 63  0  0  1  0  0  0  0  0999 V2000
    4.2710    6.9670   17.5800 C   0  0  0  0  0  0  0  0  0  0  0  0
    4.2280    5.8360   18.3970 C   0  0  0  0  0  0  0  0  0  0  0  0
    3.2170    5.7100   19.3430 C   0  0  0  0  0  0  0  0  0  0  0  0
    3.2130    4.5650   20.1760 N   0  0  0  0  0  0  0  0  0  0  0  0
    2.2860    6.6650   19.5220 N   0  0  0  0  0  0  0  0  0  0  0  0
    2.3180    7.7730   18.7440 C   0  0  0  0  0  0  0  0  0  0  0  0
    3.2910    7.9490   17.7680 C   0  0  0  0  0  0  0  0  0  0  0  0
    4.9800    5.0580   18.3130 H   0  0  0  0  0  0  0  0  0  0  0  0
    3.3030    3.7470   19.5790 H   0  0  0  0  0  0  0  0  0  0  0  0
    3.3110    8.8400   17.1490 H   0  0  0  0  0  0  0  0  0  0  0  0
    1.3160    8.7310   18.9890 N   0  0  0  0  0  0  0  0  0  0  0  0
    0.3000    8.9780   17.9790 C   0  0  0  0  0  0  0  0  0  0  0  0
   -0.5500   10.0340   18.6140 C   0  0  0  0  0  0  0  0  0  0  0  0
   -0.0470   10.3410   19.8750 C   0  0  0  0  0  0  0  0  0  0  0  0
   -0.6280   11.2860   20.7000 C   0  0  0  0  0  0  0  0  0  0  0  0
   -1.7640   11.9420   20.2260 C   0  0  0  0  0  0  0  0  0  0  0  0
   -2.2850   11.6420   18.9530 C   0  0  0  0  0  0  0  0  0  0  0  0
   -1.6830   10.6780   18.1230 C   0  0  0  0  0  0  0  0  0  0  0  0
    1.1410    9.5110   20.1220 C   0  0  0  0  0  0  0  0  0  0  0  0
    1.7770    9.5740   21.1560 O   0  0  0  0  0  0  0  0  0  0  0  0
    0.7690    9.3500   17.0630 H   0  0  0  0  0  0  0  0  0  0  0  0
   -0.2780    8.0650   17.8000 H   0  0  0  0  0  0  0  0  0  0  0  0
   -0.2120   11.5030   21.6790 H   0  0  0  0  0  0  0  0  0  0  0  0
   -2.2510   12.6930   20.8460 H   0  0  0  0  0  0  0  0  0  0  0  0
   -3.1750   12.1740   18.6150 H   0  0  0  0  0  0  0  0  0  0  0  0
   -2.2340   10.3490   16.7610 C   0  0  0  0  0  0  0  0  0  0  0  0
   -1.5750    9.3140   16.1730 F   0  0  0  0  0  0  0  0  0  0  0  0
   -2.1680   11.3840   15.8790 F   0  0  0  0  0  0  0  0  0  0  0  0
   -3.5430    9.9800   16.8090 F   0  0  0  0  0  0  0  0  0  0  0  0
    2.1960    4.3680   21.1780 C   0  0  0  0  0  0  0  0  0  0  0  0
    0.8290    4.0160   20.5460 C   0  0  0  0  0  0  0  0  0  0  0  0
    1.1980    2.5260   20.6940 C   0  0  0  0  0  0  0  0  0  0  0  0
    2.2040    2.9450   21.7840 C   0  0  0  0  0  0  0  0  0  0  0  0
    2.1620    5.1940   21.8960 H   0  0  0  0  0  0  0  0  0  0  0  0
   -0.0250    4.3170   21.1660 H   0  0  0  0  0  0  0  0  0  0  0  0
    0.6510    4.3580   19.5230 H   0  0  0  0  0  0  0  0  0  0  0  0
    1.6680    2.0980   19.8010 H   0  0  0  0  0  0  0  0  0  0  0  0
    0.3910    1.8670   21.0210 H   0  0  0  0  0  0  0  0  0  0  0  0
    1.7900    2.9060   22.8000 H   0  0  0  0  0  0  0  0  0  0  0  0
    3.1520    2.3990   21.7790 H   0  0  0  0  0  0  0  0  0  0  0  0
    5.3640    7.1750   16.5380 C   0  0  2  0  0  0  0  0  0  0  0  0
    5.8440    8.1430   16.7400 H   0  0  0  0  0  0  0  0  0  0  0  0
    4.7720    7.2630   15.1230 C   0  0  0  0  0  0  0  0  0  0  0  0
    4.7390    8.2950   14.7560 H   0  0  0  0  0  0  0  0  0  0  0  0
    3.7490    6.8750   15.0950 H   0  0  0  0  0  0  0  0  0  0  0  0
    5.3640    6.6740   14.4140 H   0  0  0  0  0  0  0  0  0  0  0  0
    6.4210    6.0590   16.6660 C   0  0  0  0  0  0  0  0  0  0  0  0
    6.2160    5.4540   17.5590 H   0  0  0  0  0  0  0  0  0  0  0  0
    7.4110    6.5110   16.8150 H   0  0  0  0  0  0  0  0  0  0  0  0
    6.5080    5.1630   15.4750 C   0  0  0  0  0  0  0  0  0  0  0  0
    7.2780    5.3030   14.4150 N   0  0  0  0  0  0  0  0  0  0  0  0
    7.0410    4.2490   13.5660 N   0  0  0  0  0  0  0  0  0  0  0  0
    6.1410    3.4790   14.1290 C   0  0  0  0  0  0  0  0  0  0  0  0
    5.7800    4.0100   15.3280 N   0  0  0  0  0  0  0  0  0  0  0  0
    5.7390    2.5640   13.7190 H   0  0  0  0  0  0  0  0  0  0  0  0
    4.8280    3.4550   16.2510 C   0  0  0  0  0  0  0  0  0  0  0  0
    3.8270    3.4930   15.8130 H   0  0  0  0  0  0  0  0  0  0  0  0
    4.8510    4.0460   17.1700 H   0  0  0  0  0  0  0  0  0  0  0  0
    5.0990    2.4170   16.4550 H   0  0  0  0  0  0  0  0  0  0  0  0
  1  7  2  0  0  0  0
  1  2  1  0  0  0  0
  2  3  2  0  0  0  0
  3  5  1  0  0  0  0
  3  4  1  0  0  0  0
  4 30  1  0  0  0  0
  6 11  1  0  0  0  0
  6  5  2  0  0  0  0
  7  6  1  0  0  0  0
  8  2  1  0  0  0  0
  9  4  1  0  0  0  0
 10  7  1  0  0  0  0
 11 19  1  0  0  0  0
 12 13  1  0  0  0  0
 12 11  1  0  0  0  0
 13 14  1  0  0  0  0
 14 19  1  0  0  0  0
 14 15  2  0  0  0  0
 15 23  1  0  0  0  0
 16 15  1  0  0  0  0
 16 24  1  0  0  0  0
 17 16  2  0  0  0  0
 18 13  2  0  0  0  0
 18 17  1  0  0  0  0
 19 20  2  0  0  0  0
 21 12  1  0  0  0  0
 22 12  1  0  0  0  0
 25 17  1  0  0  0  0
 26 29  1  0  0  0  0
 26 18  1  0  0  0  0
 27 26  1  0  0  0  0
 28 26  1  0  0  0  0
 30 33  1  0  0  0  0
 30 34  1  0  0  0  0
 31 32  1  0  0  0  0
 31 35  1  0  0  0  0
 31 30  1  0  0  0  0
 32 38  1  0  0  0  0
 32 33  1  0  0  0  0
 33 39  1  0  0  0  0
 36 31  1  0  0  0  0
 37 32  1  0  0  0  0
 40 33  1  0  0  0  0
 41 47  1  0  0  0  0
 41 42  1  1  0  0  0
 41  1  1  0  0  0  0
 43 41  1  0  0  0  0
 44 43  1  0  0  0  0
 45 43  1  0  0  0  0
 46 43  1  0  0  0  0
 47 49  1  0  0  0  0
 47 48  1  0  0  0  0
 50 47  1  0  0  0  0
 51 50  2  0  0  0  0
 52 53  2  0  0  0  0
 52 51  1  0  0  0  0
 53 54  1  0  0  0  0
 54 50  1  0  0  0  0
 54 56  1  0  0  0  0
 55 53  1  0  0  0  0
 56 59  1  0  0  0  0
 56 58  1  0  0  0  0
 57 56  1  0  0  0  0
M  END
>  <MODEL>
12

>  <REMARK>
 VINA RESULT:    -6.761      2.892      3.614
 INTER + INTRA:         -10.734
 INTER:                 -10.399
 INTRA:                  -0.336
 UNBOUND:                -1.207
  Name = 
  8 active torsions:
  status: ('A' for Active; 'I' for Inactive)
    1  A    between atoms: C_1  and  C_2
    2  A    between atoms: C_2  and  C_3
    3  A    between atoms: C_2  and  C_10
    4  A    between atoms: C_3  and  C_4
    5  A    between atoms: N_8  and  C_9
    6  A    between atoms: N_13  and  C_14
    7  A    between atoms: C_19  and  N_21
    8  A    between atoms: C_28  and  C_29
                            x       y       z     vdW  Elec       q    Type
                         _______ _______ _______ _____ _____    ______ ____

>  <TORSDO>
F 8

$$$$
=
 OpenBabel07192307433D

 59 63  0  0  1  0  0  0  0  0999 V2000
    1.8740    9.3860   18.3570 C   0  0  0  0  0  0  0  0  0  0  0  0
    2.7630   10.3990   17.9890 C   0  0  0  0  0  0  0  0  0  0  0  0
    2.3980   11.7290   18.1620 C   0  0  0  0  0  0  0  0  0  0  0  0
    3.3080   12.7350   17.7570 N   0  0  0  0  0  0  0  0  0  0  0  0
    1.1930   12.0800   18.6480 N   0  0  0  0  0  0  0  0  0  0  0  0
    0.3160   11.1110   19.0010 C   0  0  0  0  0  0  0  0  0  0  0  0
    0.6280    9.7630   18.8710 C   0  0  0  0  0  0  0  0  0  0  0  0
    3.7300   10.1620   17.5590 H   0  0  0  0  0  0  0  0  0  0  0  0
    4.2140   12.5150   18.1620 H   0  0  0  0  0  0  0  0  0  0  0  0
   -0.0810    8.9930   19.1540 H   0  0  0  0  0  0  0  0  0  0  0  0
   -0.9260   11.5510   19.4980 N   0  0  0  0  0  0  0  0  0  0  0  0
   -1.1050   11.7190   20.9300 C   0  0  0  0  0  0  0  0  0  0  0  0
   -2.5230   12.1870   21.0360 C   0  0  0  0  0  0  0  0  0  0  0  0
   -3.0800   12.2760   19.7640 C   0  0  0  0  0  0  0  0  0  0  0  0
   -4.3820   12.6850   19.5460 C   0  0  0  0  0  0  0  0  0  0  0  0
   -5.1470   13.0160   20.6650 C   0  0  0  0  0  0  0  0  0  0  0  0
   -4.5980   12.9320   21.9580 C   0  0  0  0  0  0  0  0  0  0  0  0
   -3.2690   12.5130   22.1650 C   0  0  0  0  0  0  0  0  0  0  0  0
   -2.0660   11.8750   18.7770 C   0  0  0  0  0  0  0  0  0  0  0  0
   -2.2870   11.8660   17.5820 O   0  0  0  0  0  0  0  0  0  0  0  0
   -0.9710   10.7580   21.4360 H   0  0  0  0  0  0  0  0  0  0  0  0
   -0.4120   12.4780   21.3060 H   0  0  0  0  0  0  0  0  0  0  0  0
   -4.7880   12.7440   18.5410 H   0  0  0  0  0  0  0  0  0  0  0  0
   -6.1780   13.3420   20.5360 H   0  0  0  0  0  0  0  0  0  0  0  0
   -5.2250   13.1980   22.8100 H   0  0  0  0  0  0  0  0  0  0  0  0
   -2.6730   12.4210   23.5440 C   0  0  0  0  0  0  0  0  0  0  0  0
   -3.6000   12.6080   24.5220 F   0  0  0  0  0  0  0  0  0  0  0  0
   -1.6910   13.3350   23.7790 F   0  0  0  0  0  0  0  0  0  0  0  0
   -2.1170   11.2020   23.7850 F   0  0  0  0  0  0  0  0  0  0  0  0
    2.9970   14.1340   17.9050 C   0  0  0  0  0  0  0  0  0  0  0  0
    3.3360   14.6490   19.3240 C   0  0  0  0  0  0  0  0  0  0  0  0
    4.7240   15.0610   18.7920 C   0  0  0  0  0  0  0  0  0  0  0  0
    4.1130   15.0670   17.3760 C   0  0  0  0  0  0  0  0  0  0  0  0
    1.9810   14.3660   17.5720 H   0  0  0  0  0  0  0  0  0  0  0  0
    2.7180   15.5010   19.6340 H   0  0  0  0  0  0  0  0  0  0  0  0
    3.3410   13.9120   20.1320 H   0  0  0  0  0  0  0  0  0  0  0  0
    5.4950   14.2960   18.9360 H   0  0  0  0  0  0  0  0  0  0  0  0
    5.1030   16.0210   19.1490 H   0  0  0  0  0  0  0  0  0  0  0  0
    3.7400   16.0510   17.0650 H   0  0  0  0  0  0  0  0  0  0  0  0
    4.7620   14.6790   16.5860 H   0  0  0  0  0  0  0  0  0  0  0  0
    2.2050    7.9090   18.1740 C   0  0  2  0  0  0  0  0  0  0  0  0
    1.3930    7.4500   17.5930 H   0  0  0  0  0  0  0  0  0  0  0  0
    2.2470    7.1800   19.5250 C   0  0  0  0  0  0  0  0  0  0  0  0
    2.9960    7.6100   20.2000 H   0  0  0  0  0  0  0  0  0  0  0  0
    2.4930    6.1210   19.3990 H   0  0  0  0  0  0  0  0  0  0  0  0
    1.2740    7.2320   20.0280 H   0  0  0  0  0  0  0  0  0  0  0  0
    3.5230    7.7680   17.3860 C   0  0  0  0  0  0  0  0  0  0  0  0
    4.2640    8.4820   17.7690 H   0  0  0  0  0  0  0  0  0  0  0  0
    3.3480    8.0320   16.3340 H   0  0  0  0  0  0  0  0  0  0  0  0
    4.1060    6.3930   17.4150 C   0  0  0  0  0  0  0  0  0  0  0  0
    3.4610    5.2440   17.4220 N   0  0  0  0  0  0  0  0  0  0  0  0
    4.3870    4.2290   17.4460 N   0  0  0  0  0  0  0  0  0  0  0  0
    5.5780    4.7770   17.4400 C   0  0  0  0  0  0  0  0  0  0  0  0
    5.4520    6.1300   17.4180 N   0  0  0  0  0  0  0  0  0  0  0  0
    6.5210    4.2500   17.4510 H   0  0  0  0  0  0  0  0  0  0  0  0
    6.5270    7.0840   17.3930 C   0  0  0  0  0  0  0  0  0  0  0  0
    6.2470    7.9680   17.9720 H   0  0  0  0  0  0  0  0  0  0  0  0
    6.7160    7.3680   16.3550 H   0  0  0  0  0  0  0  0  0  0  0  0
    7.4150    6.6250   17.8340 H   0  0  0  0  0  0  0  0  0  0  0  0
  1  7  1  0  0  0  0
  2  3  1  0  0  0  0
  2  1  2  0  0  0  0
  3  5  2  0  0  0  0
  4 30  1  0  0  0  0
  4  3  1  0  0  0  0
  4  9  1  0  0  0  0
  5  6  1  0  0  0  0
  6 11  1  0  0  0  0
  7  6  2  0  0  0  0
  7 10  1  0  0  0  0
  8  2  1  0  0  0  0
 11 12  1  0  0  0  0
 12 13  1  0  0  0  0
 12 22  1  0  0  0  0
 12 21  1  0  0  0  0
 13 18  1  0  0  0  0
 14 13  2  0  0  0  0
 15 14  1  0  0  0  0
 15 16  2  0  0  0  0
 16 17  1  0  0  0  0
 17 18  2  0  0  0  0
 17 25  1  0  0  0  0
 18 26  1  0  0  0  0
 19 11  1  0  0  0  0
 19 14  1  0  0  0  0
 20 19  2  0  0  0  0
 23 15  1  0  0  0  0
 24 16  1  0  0  0  0
 26 28  1  0  0  0  0
 26 29  1  0  0  0  0
 26 27  1  0  0  0  0
 30 31  1  0  0  0  0
 31 35  1  0  0  0  0
 31 36  1  0  0  0  0
 32 37  1  0  0  0  0
 32 38  1  0  0  0  0
 32 31  1  0  0  0  0
 33 30  1  0  0  0  0
 33 32  1  0  0  0  0
 34 30  1  0  0  0  0
 39 33  1  0  0  0  0
 40 33  1  0  0  0  0
 41 42  1  6  0  0  0
 41  1  1  0  0  0  0
 41 43  1  0  0  0  0
 43 46  1  0  0  0  0
 43 44  1  0  0  0  0
 45 43  1  0  0  0  0
 47 50  1  0  0  0  0
 47 48  1  0  0  0  0
 47 41  1  0  0  0  0
 49 47  1  0  0  0  0
 50 54  1  0  0  0  0
 50 51  2  0  0  0  0
 51 52  1  0  0  0  0
 53 52  2  0  0  0  0
 53 55  1  0  0  0  0
 54 53  1  0  0  0  0
 56 54  1  0  0  0  0
 56 59  1  0  0  0  0
 56 57  1  0  0  0  0
 58 56  1  0  0  0  0
M  END
>  <MODEL>
13

>  <REMARK>
 VINA RESULT:    -6.754      3.125      6.209
 INTER + INTRA:         -10.724
 INTER:                  -9.895
 INTRA:                  -0.829
 UNBOUND:                -1.207
  Name = 
  8 active torsions:
  status: ('A' for Active; 'I' for Inactive)
    1  A    between atoms: C_1  and  C_2
    2  A    between atoms: C_2  and  C_3
    3  A    between atoms: C_2  and  C_10
    4  A    between atoms: C_3  and  C_4
    5  A    between atoms: N_8  and  C_9
    6  A    between atoms: N_13  and  C_14
    7  A    between atoms: C_19  and  N_21
    8  A    between atoms: C_28  and  C_29
                            x       y       z     vdW  Elec       q    Type
                         _______ _______ _______ _____ _____    ______ ____

>  <TORSDO>
F 8

$$$$
=
 OpenBabel07192307433D

 59 63  0  0  1  0  0  0  0  0999 V2000
    2.1440    4.6890   20.5340 C   0  0  0  0  0  0  0  0  0  0  0  0
    3.4100    4.5840   19.9550 C   0  0  0  0  0  0  0  0  0  0  0  0
    4.0070    5.7110   19.3990 C   0  0  0  0  0  0  0  0  0  0  0  0
    5.2790    5.5690   18.7960 N   0  0  0  0  0  0  0  0  0  0  0  0
    3.3860    6.9040   19.3720 N   0  0  0  0  0  0  0  0  0  0  0  0
    2.1550    7.0220   19.9210 C   0  0  0  0  0  0  0  0  0  0  0  0
    1.5140    5.9380   20.5090 C   0  0  0  0  0  0  0  0  0  0  0  0
    3.9310    3.6330   19.9210 H   0  0  0  0  0  0  0  0  0  0  0  0
    5.8830    5.0840   19.4540 H   0  0  0  0  0  0  0  0  0  0  0  0
    0.5260    6.0400   20.9460 H   0  0  0  0  0  0  0  0  0  0  0  0
    1.5650    8.2980   19.8530 N   0  0  0  0  0  0  0  0  0  0  0  0
    0.9230    8.8530   21.0320 C   0  0  0  0  0  0  0  0  0  0  0  0
    0.4400   10.1870   20.5520 C   0  0  0  0  0  0  0  0  0  0  0  0
    0.7920   10.3560   19.2160 C   0  0  0  0  0  0  0  0  0  0  0  0
    0.4790   11.4960   18.5010 C   0  0  0  0  0  0  0  0  0  0  0  0
   -0.2180   12.5030   19.1690 C   0  0  0  0  0  0  0  0  0  0  0  0
   -0.5820   12.3470   20.5200 C   0  0  0  0  0  0  0  0  0  0  0  0
   -0.2570   11.1790   21.2370 C   0  0  0  0  0  0  0  0  0  0  0  0
    1.5140    9.1570   18.7650 C   0  0  0  0  0  0  0  0  0  0  0  0
    1.9430    9.0410   17.6340 O   0  0  0  0  0  0  0  0  0  0  0  0
    0.0840    8.2170   21.3320 H   0  0  0  0  0  0  0  0  0  0  0  0
    1.6550    8.9690   21.8370 H   0  0  0  0  0  0  0  0  0  0  0  0
    0.7680   11.5980   17.4600 H   0  0  0  0  0  0  0  0  0  0  0  0
   -0.4840   13.4170   18.6400 H   0  0  0  0  0  0  0  0  0  0  0  0
   -1.1270   13.1540   21.0110 H   0  0  0  0  0  0  0  0  0  0  0  0
   -0.6400   11.0030   22.6820 C   0  0  0  0  0  0  0  0  0  0  0  0
   -0.6810   12.1860   23.3530 F   0  0  0  0  0  0  0  0  0  0  0  0
    0.2110   10.2040   23.3810 F   0  0  0  0  0  0  0  0  0  0  0  0
   -1.8760   10.4510   22.8240 F   0  0  0  0  0  0  0  0  0  0  0  0
    5.9570    6.6930   18.1990 C   0  0  0  0  0  0  0  0  0  0  0  0
    7.4760    6.4360   18.0560 C   0  0  0  0  0  0  0  0  0  0  0  0
    7.2030    5.9040   16.6340 C   0  0  0  0  0  0  0  0  0  0  0  0
    5.8830    6.7000   16.6540 C   0  0  0  0  0  0  0  0  0  0  0  0
    5.7030    7.6360   18.6950 H   0  0  0  0  0  0  0  0  0  0  0  0
    8.0730    7.3570   18.0690 H   0  0  0  0  0  0  0  0  0  0  0  0
    7.9260    5.7210   18.7490 H   0  0  0  0  0  0  0  0  0  0  0  0
    7.0630    4.8180   16.5900 H   0  0  0  0  0  0  0  0  0  0  0  0
    7.9250    6.2010   15.8700 H   0  0  0  0  0  0  0  0  0  0  0  0
    5.9720    7.7050   16.2220 H   0  0  0  0  0  0  0  0  0  0  0  0
    5.0300    6.1990   16.1870 H   0  0  0  0  0  0  0  0  0  0  0  0
    1.4280    3.4880   21.1420 C   0  0  2  0  0  0  0  0  0  0  0  0
    0.5750    3.8630   21.7260 H   0  0  0  0  0  0  0  0  0  0  0  0
    2.3390    2.7380   22.1240 C   0  0  0  0  0  0  0  0  0  0  0  0
    3.3930    3.0100   21.9950 H   0  0  0  0  0  0  0  0  0  0  0  0
    2.2640    1.6540   21.9890 H   0  0  0  0  0  0  0  0  0  0  0  0
    2.0610    2.9580   23.1610 H   0  0  0  0  0  0  0  0  0  0  0  0
    0.8970    2.5770   20.0160 C   0  0  0  0  0  0  0  0  0  0  0  0
    0.0050    3.0280   19.5610 H   0  0  0  0  0  0  0  0  0  0  0  0
    0.5790    1.6170   20.4450 H   0  0  0  0  0  0  0  0  0  0  0  0
    1.8980    2.2850   18.9470 C   0  0  0  0  0  0  0  0  0  0  0  0
    2.8340    1.3570   18.9510 N   0  0  0  0  0  0  0  0  0  0  0  0
    3.5270    1.4370   17.7660 N   0  0  0  0  0  0  0  0  0  0  0  0
    2.9920    2.4020   17.0570 C   0  0  0  0  0  0  0  0  0  0  0  0
    1.9660    2.9590   17.7550 N   0  0  0  0  0  0  0  0  0  0  0  0
    3.3040    2.7160   16.0720 H   0  0  0  0  0  0  0  0  0  0  0  0
    1.1240    4.0370   17.3130 C   0  0  0  0  0  0  0  0  0  0  0  0
    1.6370    4.6090   16.5350 H   0  0  0  0  0  0  0  0  0  0  0  0
    0.9120    4.6850   18.1670 H   0  0  0  0  0  0  0  0  0  0  0  0
    0.2000    3.6180   16.9100 H   0  0  0  0  0  0  0  0  0  0  0  0
  1 41  1  0  0  0  0
  2  1  2  0  0  0  0
  3  2  1  0  0  0  0
  4  3  1  0  0  0  0
  4  9  1  0  0  0  0
  5  3  2  0  0  0  0
  5  6  1  0  0  0  0
  6  7  2  0  0  0  0
  7  1  1  0  0  0  0
  7 10  1  0  0  0  0
  8  2  1  0  0  0  0
 11  6  1  0  0  0  0
 11 12  1  0  0  0  0
 12 21  1  0  0  0  0
 12 22  1  0  0  0  0
 13 12  1  0  0  0  0
 13 18  1  0  0  0  0
 14 13  2  0  0  0  0
 15 16  2  0  0  0  0
 15 14  1  0  0  0  0
 16 17  1  0  0  0  0
 17 25  1  0  0  0  0
 17 18  2  0  0  0  0
 18 26  1  0  0  0  0
 19 14  1  0  0  0  0
 19 11  1  0  0  0  0
 20 19  2  0  0  0  0
 23 15  1  0  0  0  0
 24 16  1  0  0  0  0
 26 29  1  0  0  0  0
 26 27  1  0  0  0  0
 26 28  1  0  0  0  0
 30 34  1  0  0  0  0
 30  4  1  0  0  0  0
 31 35  1  0  0  0  0
 31 30  1  0  0  0  0
 31 36  1  0  0  0  0
 32 33  1  0  0  0  0
 32 31  1  0  0  0  0
 33 30  1  0  0  0  0
 37 32  1  0  0  0  0
 38 32  1  0  0  0  0
 39 33  1  0  0  0  0
 40 33  1  0  0  0  0
 41 42  1  1  0  0  0
 41 43  1  0  0  0  0
 43 46  1  0  0  0  0
 44 43  1  0  0  0  0
 45 43  1  0  0  0  0
 47 49  1  0  0  0  0
 47 41  1  0  0  0  0
 48 47  1  0  0  0  0
 50 51  2  0  0  0  0
 50 47  1  0  0  0  0
 52 51  1  0  0  0  0
 53 54  1  0  0  0  0
 53 52  2  0  0  0  0
 54 50  1  0  0  0  0
 55 53  1  0  0  0  0
 56 54  1  0  0  0  0
 56 58  1  0  0  0  0
 57 56  1  0  0  0  0
 59 56  1  0  0  0  0
M  END
>  <MODEL>
14

>  <REMARK>
 VINA RESULT:    -6.697      1.716      4.930
 INTER + INTRA:         -10.644
 INTER:                 -10.631
 INTRA:                  -0.013
 UNBOUND:                -1.207
  Name = 
  8 active torsions:
  status: ('A' for Active; 'I' for Inactive)
    1  A    between atoms: C_1  and  C_2
    2  A    between atoms: C_2  and  C_3
    3  A    between atoms: C_2  and  C_10
    4  A    between atoms: C_3  and  C_4
    5  A    between atoms: N_8  and  C_9
    6  A    between atoms: N_13  and  C_14
    7  A    between atoms: C_19  and  N_21
    8  A    between atoms: C_28  and  C_29
                            x       y       z     vdW  Elec       q    Type
                         _______ _______ _______ _____ _____    ______ ____

>  <TORSDO>
F 8

$$$$
=
 OpenBabel07192307433D

 59 63  0  0  1  0  0  0  0  0999 V2000
   -1.3810   11.6450   19.3800 C   0  0  0  0  0  0  0  0  0  0  0  0
   -0.5520   12.7290   19.0850 C   0  0  0  0  0  0  0  0  0  0  0  0
    0.8080   12.5210   18.8890 C   0  0  0  0  0  0  0  0  0  0  0  0
    1.6280   13.6420   18.6160 N   0  0  0  0  0  0  0  0  0  0  0  0
    1.3660   11.3010   19.0070 N   0  0  0  0  0  0  0  0  0  0  0  0
    0.5790   10.2400   19.3020 C   0  0  0  0  0  0  0  0  0  0  0  0
   -0.7910   10.3800   19.4900 C   0  0  0  0  0  0  0  0  0  0  0  0
   -0.9530   13.7350   19.0170 H   0  0  0  0  0  0  0  0  0  0  0  0
    1.1940   14.1670   17.8620 H   0  0  0  0  0  0  0  0  0  0  0  0
   -1.4150    9.5250   19.7280 H   0  0  0  0  0  0  0  0  0  0  0  0
    1.2310    8.9980   19.4130 N   0  0  0  0  0  0  0  0  0  0  0  0
    2.2230    8.6190   18.4210 C   0  0  0  0  0  0  0  0  0  0  0  0
    2.6650    7.2670   18.8910 C   0  0  0  0  0  0  0  0  0  0  0  0
    1.9740    6.9300   20.0520 C   0  0  0  0  0  0  0  0  0  0  0  0
    2.1740    5.7350   20.7170 C   0  0  0  0  0  0  0  0  0  0  0  0
    3.1100    4.8500   20.1820 C   0  0  0  0  0  0  0  0  0  0  0  0
    3.8160    5.1770   19.0100 C   0  0  0  0  0  0  0  0  0  0  0  0
    3.6030    6.3980   18.3420 C   0  0  0  0  0  0  0  0  0  0  0  0
    1.0610    8.0300   20.3920 C   0  0  0  0  0  0  0  0  0  0  0  0
    0.3380    7.9990   21.3690 O   0  0  0  0  0  0  0  0  0  0  0  0
    1.7560    8.5580   17.4330 H   0  0  0  0  0  0  0  0  0  0  0  0
    3.0560    9.3300   18.4360 H   0  0  0  0  0  0  0  0  0  0  0  0
    1.6200    5.5000   21.6210 H   0  0  0  0  0  0  0  0  0  0  0  0
    3.2960    3.8980   20.6770 H   0  0  0  0  0  0  0  0  0  0  0  0
    4.5410    4.4610   18.6200 H   0  0  0  0  0  0  0  0  0  0  0  0
    4.3540    6.7570   17.0870 C   0  0  0  0  0  0  0  0  0  0  0  0
    5.5570    7.3340   17.3530 F   0  0  0  0  0  0  0  0  0  0  0  0
    3.6890    7.6300   16.2810 F   0  0  0  0  0  0  0  0  0  0  0  0
    4.6250    5.6670   16.3180 F   0  0  0  0  0  0  0  0  0  0  0  0
    3.0470   13.5010   18.4040 C   0  0  0  0  0  0  0  0  0  0  0  0
    3.6620   14.7770   17.7820 C   0  0  0  0  0  0  0  0  0  0  0  0
    3.9710   15.2670   19.2120 C   0  0  0  0  0  0  0  0  0  0  0  0
    3.8850   13.7970   19.6700 C   0  0  0  0  0  0  0  0  0  0  0  0
    3.2920   12.5760   17.8720 H   0  0  0  0  0  0  0  0  0  0  0  0
    4.5610   14.5780   17.1860 H   0  0  0  0  0  0  0  0  0  0  0  0
    2.9950   15.4170   17.1990 H   0  0  0  0  0  0  0  0  0  0  0  0
    3.1900   15.9070   19.6360 H   0  0  0  0  0  0  0  0  0  0  0  0
    4.9410   15.7510   19.3480 H   0  0  0  0  0  0  0  0  0  0  0  0
    4.8550   13.2840   19.6740 H   0  0  0  0  0  0  0  0  0  0  0  0
    3.4080   13.6380   20.6410 H   0  0  0  0  0  0  0  0  0  0  0  0
   -2.8770   11.8080   19.6260 C   0  0  2  0  0  0  0  0  0  0  0  0
   -3.2130   10.9620   20.2420 H   0  0  0  0  0  0  0  0  0  0  0  0
   -3.6650   11.7370   18.3090 C   0  0  0  0  0  0  0  0  0  0  0  0
   -4.7400   11.6150   18.4820 H   0  0  0  0  0  0  0  0  0  0  0  0
   -3.3370   10.8930   17.6940 H   0  0  0  0  0  0  0  0  0  0  0  0
   -3.5210   12.6480   17.7180 H   0  0  0  0  0  0  0  0  0  0  0  0
   -3.1340   13.1190   20.3970 C   0  0  0  0  0  0  0  0  0  0  0  0
   -3.8350   13.7500   19.8350 H   0  0  0  0  0  0  0  0  0  0  0  0
   -2.1960   13.6850   20.4750 H   0  0  0  0  0  0  0  0  0  0  0  0
   -3.6560   12.9180   21.7810 C   0  0  0  0  0  0  0  0  0  0  0  0
   -4.9140   12.8370   22.1660 N   0  0  0  0  0  0  0  0  0  0  0  0
   -4.9390   12.6450   23.5260 N   0  0  0  0  0  0  0  0  0  0  0  0
   -3.6970   12.6000   23.9440 C   0  0  0  0  0  0  0  0  0  0  0  0
   -2.8590   12.7630   22.8870 N   0  0  0  0  0  0  0  0  0  0  0  0
   -3.3740   12.4560   24.9660 H   0  0  0  0  0  0  0  0  0  0  0  0
   -1.4220   12.7620   22.9330 C   0  0  0  0  0  0  0  0  0  0  0  0
   -1.0830   12.2220   23.8210 H   0  0  0  0  0  0  0  0  0  0  0  0
   -1.0750   13.7980   22.9760 H   0  0  0  0  0  0  0  0  0  0  0  0
   -1.0420   12.2670   22.0370 H   0  0  0  0  0  0  0  0  0  0  0  0
  1  7  1  0  0  0  0
  1 41  1  0  0  0  0
  2  1  2  0  0  0  0
  3  5  2  0  0  0  0
  3  2  1  0  0  0  0
  4  3  1  0  0  0  0
  5  6  1  0  0  0  0
  6 11  1  0  0  0  0
  6  7  2  0  0  0  0
  7 10  1  0  0  0  0
  8  2  1  0  0  0  0
  9  4  1  0  0  0  0
 11 19  1  0  0  0  0
 12 22  1  0  0  0  0
 12 13  1  0  0  0  0
 12 11  1  0  0  0  0
 13 14  1  0  0  0  0
 14 19  1  0  0  0  0
 14 15  2  0  0  0  0
 15 23  1  0  0  0  0
 16 24  1  0  0  0  0
 16 15  1  0  0  0  0
 17 16  2  0  0  0  0
 18 13  2  0  0  0  0
 18 17  1  0  0  0  0
 19 20  2  0  0  0  0
 21 12  1  0  0  0  0
 25 17  1  0  0  0  0
 26 27  1  0  0  0  0
 26 18  1  0  0  0  0
 28 26  1  0  0  0  0
 29 26  1  0  0  0  0
 30  4  1  0  0  0  0
 30 33  1  0  0  0  0
 31 30  1  0  0  0  0
 31 32  1  0  0  0  0
 32 38  1  0  0  0  0
 32 37  1  0  0  0  0
 32 33  1  0  0  0  0
 33 39  1  0  0  0  0
 33 40  1  0  0  0  0
 34 30  1  0  0  0  0
 35 31  1  0  0  0  0
 36 31  1  0  0  0  0
 41 42  1  1  0  0  0
 41 47  1  0  0  0  0
 43 44  1  0  0  0  0
 43 41  1  0  0  0  0
 45 43  1  0  0  0  0
 46 43  1  0  0  0  0
 47 49  1  0  0  0  0
 47 50  1  0  0  0  0
 48 47  1  0  0  0  0
 50 51  2  0  0  0  0
 50 54  1  0  0  0  0
 51 52  1  0  0  0  0
 52 53  2  0  0  0  0
 53 55  1  0  0  0  0
 54 56  1  0  0  0  0
 54 53  1  0  0  0  0
 56 58  1  0  0  0  0
 56 57  1  0  0  0  0
 59 56  1  0  0  0  0
M  END
>  <MODEL>
15

>  <REMARK>
 VINA RESULT:    -6.557      4.378      9.449
 INTER + INTRA:         -10.447
 INTER:                  -9.423
 INTRA:                  -1.025
 UNBOUND:                -1.207
  Name = 
  8 active torsions:
  status: ('A' for Active; 'I' for Inactive)
    1  A    between atoms: C_1  and  C_2
    2  A    between atoms: C_2  and  C_3
    3  A    between atoms: C_2  and  C_10
    4  A    between atoms: C_3  and  C_4
    5  A    between atoms: N_8  and  C_9
    6  A    between atoms: N_13  and  C_14
    7  A    between atoms: C_19  and  N_21
    8  A    between atoms: C_28  and  C_29
                            x       y       z     vdW  Elec       q    Type
                         _______ _______ _______ _____ _____    ______ ____

>  <TORSDO>
F 8

$$$$
=
 OpenBabel07192307433D

 59 63  0  0  1  0  0  0  0  0999 V2000
   -1.1510   10.9000   18.5300 C   0  0  0  0  0  0  0  0  0  0  0  0
   -0.4370   12.0990   18.4850 C   0  0  0  0  0  0  0  0  0  0  0  0
    0.9530   12.0730   18.5200 C   0  0  0  0  0  0  0  0  0  0  0  0
    1.6490   13.3060   18.4990 N   0  0  0  0  0  0  0  0  0  0  0  0
    1.6410   10.9220   18.6300 N   0  0  0  0  0  0  0  0  0  0  0  0
    0.9650    9.7510   18.6840 C   0  0  0  0  0  0  0  0  0  0  0  0
   -0.4230    9.7080   18.6330 C   0  0  0  0  0  0  0  0  0  0  0  0
   -0.9520   13.0520   18.4340 H   0  0  0  0  0  0  0  0  0  0  0  0
    1.2810   13.8560   17.7280 H   0  0  0  0  0  0  0  0  0  0  0  0
   -0.9580    8.7650   18.6790 H   0  0  0  0  0  0  0  0  0  0  0  0
    1.7500    8.5880   18.8020 N   0  0  0  0  0  0  0  0  0  0  0  0
    2.7480    8.2920   17.7880 C   0  0  0  0  0  0  0  0  0  0  0  0
    3.3450    7.0080   18.2730 C   0  0  0  0  0  0  0  0  0  0  0  0
    2.7290    6.6280   19.4620 C   0  0  0  0  0  0  0  0  0  0  0  0
    3.0750    5.4780   20.1470 C   0  0  0  0  0  0  0  0  0  0  0  0
    4.0850    4.6850   19.6020 C   0  0  0  0  0  0  0  0  0  0  0  0
    4.7180    5.0560   18.4010 C   0  0  0  0  0  0  0  0  0  0  0  0
    4.3550    6.2300   17.7140 C   0  0  0  0  0  0  0  0  0  0  0  0
    1.7130    7.6330   19.8070 C   0  0  0  0  0  0  0  0  0  0  0  0
    1.0260    7.5490   20.8060 O   0  0  0  0  0  0  0  0  0  0  0  0
    2.2620    8.1570   16.8170 H   0  0  0  0  0  0  0  0  0  0  0  0
    3.4990    9.0880   17.7610 H   0  0  0  0  0  0  0  0  0  0  0  0
    2.5750    5.2080   21.0720 H   0  0  0  0  0  0  0  0  0  0  0  0
    4.3860    3.7710   20.1110 H   0  0  0  0  0  0  0  0  0  0  0  0
    5.5040    4.4120   18.0040 H   0  0  0  0  0  0  0  0  0  0  0  0
    5.0270    6.6360   16.4290 C   0  0  0  0  0  0  0  0  0  0  0  0
    6.1490    7.3750   16.6440 F   0  0  0  0  0  0  0  0  0  0  0  0
    4.2370    7.3820   15.6090 F   0  0  0  0  0  0  0  0  0  0  0  0
    5.4230    5.5620   15.6930 F   0  0  0  0  0  0  0  0  0  0  0  0
    3.0890   13.3550   18.5340 C   0  0  0  0  0  0  0  0  0  0  0  0
    3.6310   14.6770   17.9400 C   0  0  0  0  0  0  0  0  0  0  0  0
    3.6210   15.2670   19.3650 C   0  0  0  0  0  0  0  0  0  0  0  0
    3.6500   13.8210   19.8990 C   0  0  0  0  0  0  0  0  0  0  0  0
    3.5410   12.4520   18.1130 H   0  0  0  0  0  0  0  0  0  0  0  0
    4.6380   14.5790   17.5160 H   0  0  0  0  0  0  0  0  0  0  0  0
    2.9970   15.1910   17.2120 H   0  0  0  0  0  0  0  0  0  0  0  0
    2.7010   15.8100   19.6100 H   0  0  0  0  0  0  0  0  0  0  0  0
    4.4810   15.8870   19.6270 H   0  0  0  0  0  0  0  0  0  0  0  0
    4.6630   13.4490   20.0990 H   0  0  0  0  0  0  0  0  0  0  0  0
    3.0360   13.6390   20.7860 H   0  0  0  0  0  0  0  0  0  0  0  0
   -2.6750   10.8600   18.5150 C   0  0  2  0  0  0  0  0  0  0  0  0
   -3.0050   10.2340   19.3560 H   0  0  0  0  0  0  0  0  0  0  0  0
   -3.1990   10.1920   17.2350 C   0  0  0  0  0  0  0  0  0  0  0  0
   -3.0700   10.8330   16.3560 H   0  0  0  0  0  0  0  0  0  0  0  0
   -4.2650    9.9590   17.3160 H   0  0  0  0  0  0  0  0  0  0  0  0
   -2.6720    9.2500   17.0430 H   0  0  0  0  0  0  0  0  0  0  0  0
   -3.2310   12.2850   18.7070 C   0  0  0  0  0  0  0  0  0  0  0  0
   -3.9890   12.4950   17.9410 H   0  0  0  0  0  0  0  0  0  0  0  0
   -2.4230   13.0150   18.5570 H   0  0  0  0  0  0  0  0  0  0  0  0
   -3.8170   12.5340   20.0570 C   0  0  0  0  0  0  0  0  0  0  0  0
   -5.0340   12.2450   20.4740 N   0  0  0  0  0  0  0  0  0  0  0  0
   -5.1470   12.6410   21.7860 N   0  0  0  0  0  0  0  0  0  0  0  0
   -3.9940   13.1510   22.1480 C   0  0  0  0  0  0  0  0  0  0  0  0
   -3.1300   13.1020   21.1000 N   0  0  0  0  0  0  0  0  0  0  0  0
   -3.7530   13.5510   23.1220 H   0  0  0  0  0  0  0  0  0  0  0  0
   -1.7650   13.5540   21.1010 C   0  0  0  0  0  0  0  0  0  0  0  0
   -1.2570   13.1900   20.2040 H   0  0  0  0  0  0  0  0  0  0  0  0
   -1.2700   13.1600   21.9920 H   0  0  0  0  0  0  0  0  0  0  0  0
   -1.7570   14.6460   21.1090 H   0  0  0  0  0  0  0  0  0  0  0  0
  1  7  1  0  0  0  0
  2  3  1  0  0  0  0
  2  1  2  0  0  0  0
  3  5  2  0  0  0  0
  4  3  1  0  0  0  0
  4 30  1  0  0  0  0
  5  6  1  0  0  0  0
  6 11  1  0  0  0  0
  7 10  1  0  0  0  0
  7  6  2  0  0  0  0
  8  2  1  0  0  0  0
  9  4  1  0  0  0  0
 11 19  1  0  0  0  0
 12 13  1  0  0  0  0
 12 11  1  0  0  0  0
 13 14  1  0  0  0  0
 14 19  1  0  0  0  0
 14 15  2  0  0  0  0
 15 23  1  0  0  0  0
 16 24  1  0  0  0  0
 16 15  1  0  0  0  0
 17 16  2  0  0  0  0
 18 13  2  0  0  0  0
 18 17  1  0  0  0  0
 19 20  2  0  0  0  0
 21 12  1  0  0  0  0
 22 12  1  0  0  0  0
 25 17  1  0  0  0  0
 26 27  1  0  0  0  0
 26 18  1  0  0  0  0
 28 26  1  0  0  0  0
 29 26  1  0  0  0  0
 30 33  1  0  0  0  0
 31 30  1  0  0  0  0
 31 32  1  0  0  0  0
 32 37  1  0  0  0  0
 32 38  1  0  0  0  0
 32 33  1  0  0  0  0
 33 39  1  0  0  0  0
 33 40  1  0  0  0  0
 34 30  1  0  0  0  0
 35 31  1  0  0  0  0
 36 31  1  0  0  0  0
 41  1  1  0  0  0  0
 41 47  1  0  0  0  0
 41 42  1  1  0  0  0
 43 45  1  0  0  0  0
 43 41  1  0  0  0  0
 44 43  1  0  0  0  0
 46 43  1  0  0  0  0
 47 50  1  0  0  0  0
 48 47  1  0  0  0  0
 49 47  1  0  0  0  0
 50 51  2  0  0  0  0
 50 54  1  0  0  0  0
 51 52  1  0  0  0  0
 52 53  2  0  0  0  0
 53 55  1  0  0  0  0
 54 56  1  0  0  0  0
 54 53  1  0  0  0  0
 56 59  1  0  0  0  0
 56 58  1  0  0  0  0
 57 56  1  0  0  0  0
M  END
>  <MODEL>
16

>  <REMARK>
 VINA RESULT:    -6.488      4.399      9.354
 INTER + INTRA:         -10.350
 INTER:                  -9.441
 INTRA:                  -0.909
 UNBOUND:                -1.207
  Name = 
  8 active torsions:
  status: ('A' for Active; 'I' for Inactive)
    1  A    between atoms: C_1  and  C_2
    2  A    between atoms: C_2  and  C_3
    3  A    between atoms: C_2  and  C_10
    4  A    between atoms: C_3  and  C_4
    5  A    between atoms: N_8  and  C_9
    6  A    between atoms: N_13  and  C_14
    7  A    between atoms: C_19  and  N_21
    8  A    between atoms: C_28  and  C_29
                            x       y       z     vdW  Elec       q    Type
                         _______ _______ _______ _____ _____    ______ ____

>  <TORSDO>
F 8

$$$$
=
 OpenBabel07192307433D

 59 63  0  0  1  0  0  0  0  0999 V2000
   -0.1680   12.6960   20.0140 C   0  0  0  0  0  0  0  0  0  0  0  0
   -1.4110   12.6090   19.3840 C   0  0  0  0  0  0  0  0  0  0  0  0
   -1.7330   11.4710   18.6530 C   0  0  0  0  0  0  0  0  0  0  0  0
   -2.9900   11.4220   18.0040 N   0  0  0  0  0  0  0  0  0  0  0  0
   -0.8670   10.4530   18.5040 N   0  0  0  0  0  0  0  0  0  0  0  0
    0.3470   10.5240   19.1000 C   0  0  0  0  0  0  0  0  0  0  0  0
    0.7210   11.6260   19.8600 C   0  0  0  0  0  0  0  0  0  0  0  0
   -2.1250   13.4230   19.4470 H   0  0  0  0  0  0  0  0  0  0  0  0
   -3.7010   11.6710   18.6850 H   0  0  0  0  0  0  0  0  0  0  0  0
    1.6960   11.6750   20.3340 H   0  0  0  0  0  0  0  0  0  0  0  0
    1.2020    9.4240   18.8980 N   0  0  0  0  0  0  0  0  0  0  0  0
    1.0530    8.2400   19.7270 C   0  0  0  0  0  0  0  0  0  0  0  0
    2.1210    7.3300   19.2040 C   0  0  0  0  0  0  0  0  0  0  0  0
    2.8010    7.9600   18.1660 C   0  0  0  0  0  0  0  0  0  0  0  0
    3.8440    7.3600   17.4850 C   0  0  0  0  0  0  0  0  0  0  0  0
    4.2090    6.0720   17.8750 C   0  0  0  0  0  0  0  0  0  0  0  0
    3.5310    5.4220   18.9230 C   0  0  0  0  0  0  0  0  0  0  0  0
    2.4700    6.0440   19.6080 C   0  0  0  0  0  0  0  0  0  0  0  0
    2.2180    9.2940   17.9630 C   0  0  0  0  0  0  0  0  0  0  0  0
    2.6220   10.0600   17.1090 O   0  0  0  0  0  0  0  0  0  0  0  0
    1.2340    8.4950   20.7760 H   0  0  0  0  0  0  0  0  0  0  0  0
    0.0600    7.8030   19.5800 H   0  0  0  0  0  0  0  0  0  0  0  0
    4.3550    7.8780   16.6800 H   0  0  0  0  0  0  0  0  0  0  0  0
    5.0260    5.5650   17.3650 H   0  0  0  0  0  0  0  0  0  0  0  0
    3.8430    4.4140   19.2010 H   0  0  0  0  0  0  0  0  0  0  0  0
    1.7370    5.3560   20.7290 C   0  0  0  0  0  0  0  0  0  0  0  0
    0.7570    4.5300   20.2750 F   0  0  0  0  0  0  0  0  0  0  0  0
    1.1340    6.2140   21.5970 F   0  0  0  0  0  0  0  0  0  0  0  0
    2.5620    4.5780   21.4820 F   0  0  0  0  0  0  0  0  0  0  0  0
   -3.3900   10.2750   17.2280 C   0  0  0  0  0  0  0  0  0  0  0  0
   -4.3780   10.6620   16.1020 C   0  0  0  0  0  0  0  0  0  0  0  0
   -3.1680   10.8200   15.1590 C   0  0  0  0  0  0  0  0  0  0  0  0
   -2.3780    9.9070   16.1170 C   0  0  0  0  0  0  0  0  0  0  0  0
   -3.7280    9.4490   17.8620 H   0  0  0  0  0  0  0  0  0  0  0  0
   -5.0490    9.8430   15.8160 H   0  0  0  0  0  0  0  0  0  0  0  0
   -4.9770   11.5640   16.2550 H   0  0  0  0  0  0  0  0  0  0  0  0
   -2.7810   11.8440   15.1070 H   0  0  0  0  0  0  0  0  0  0  0  0
   -3.3040   10.4390   14.1440 H   0  0  0  0  0  0  0  0  0  0  0  0
   -2.4120    8.8460   15.8380 H   0  0  0  0  0  0  0  0  0  0  0  0
   -1.3320   10.1870   16.2730 H   0  0  0  0  0  0  0  0  0  0  0  0
    0.2540   13.9240   20.8130 C   0  0  2  0  0  0  0  0  0  0  0  0
   -0.3960   14.7600   20.5170 H   0  0  0  0  0  0  0  0  0  0  0  0
    1.6930   14.3410   20.4700 C   0  0  0  0  0  0  0  0  0  0  0  0
    2.2300   14.7180   21.3470 H   0  0  0  0  0  0  0  0  0  0  0  0
    1.7080   15.1320   19.7140 H   0  0  0  0  0  0  0  0  0  0  0  0
    2.2590   13.4930   20.0690 H   0  0  0  0  0  0  0  0  0  0  0  0
    0.0620   13.6530   22.3190 C   0  0  0  0  0  0  0  0  0  0  0  0
    0.4460   14.5000   22.9020 H   0  0  0  0  0  0  0  0  0  0  0  0
    0.6570   12.7770   22.6100 H   0  0  0  0  0  0  0  0  0  0  0  0
   -1.3530   13.3880   22.7140 C   0  0  0  0  0  0  0  0  0  0  0  0
   -2.3440   14.2540   22.7960 N   0  0  0  0  0  0  0  0  0  0  0  0
   -3.4750   13.5810   23.1910 N   0  0  0  0  0  0  0  0  0  0  0  0
   -3.1570   12.3170   23.3300 C   0  0  0  0  0  0  0  0  0  0  0  0
   -1.8400   12.1480   23.0390 N   0  0  0  0  0  0  0  0  0  0  0  0
   -3.8250   11.5220   23.6280 H   0  0  0  0  0  0  0  0  0  0  0  0
   -1.1160   10.9060   23.0640 C   0  0  0  0  0  0  0  0  0  0  0  0
   -1.5490   10.2440   23.8180 H   0  0  0  0  0  0  0  0  0  0  0  0
   -0.0730   11.1170   23.3120 H   0  0  0  0  0  0  0  0  0  0  0  0
   -1.1890   10.4370   22.0800 H   0  0  0  0  0  0  0  0  0  0  0  0
  1 41  1  0  0  0  0
  2  8  1  0  0  0  0
  2  1  2  0  0  0  0
  3  2  1  0  0  0  0
  4  3  1  0  0  0  0
  4  9  1  0  0  0  0
  5  3  2  0  0  0  0
  5  6  1  0  0  0  0
  6  7  2  0  0  0  0
  7  1  1  0  0  0  0
  7 10  1  0  0  0  0
 11  6  1  0  0  0  0
 11 12  1  0  0  0  0
 12 21  1  0  0  0  0
 13 18  1  0  0  0  0
 13 12  1  0  0  0  0
 14 13  2  0  0  0  0
 15 16  2  0  0  0  0
 15 14  1  0  0  0  0
 16 17  1  0  0  0  0
 17 25  1  0  0  0  0
 17 18  2  0  0  0  0
 18 26  1  0  0  0  0
 19 14  1  0  0  0  0
 19 11  1  0  0  0  0
 20 19  2  0  0  0  0
 22 12  1  0  0  0  0
 23 15  1  0  0  0  0
 24 16  1  0  0  0  0
 26 29  1  0  0  0  0
 26 28  1  0  0  0  0
 27 26  1  0  0  0  0
 30 34  1  0  0  0  0
 30  4  1  0  0  0  0
 31 36  1  0  0  0  0
 31 30  1  0  0  0  0
 32 31  1  0  0  0  0
 32 33  1  0  0  0  0
 33 40  1  0  0  0  0
 33 30  1  0  0  0  0
 35 31  1  0  0  0  0
 37 32  1  0  0  0  0
 38 32  1  0  0  0  0
 39 33  1  0  0  0  0
 41 42  1  6  0  0  0
 41 47  1  0  0  0  0
 43 41  1  0  0  0  0
 43 44  1  0  0  0  0
 45 43  1  0  0  0  0
 46 43  1  0  0  0  0
 47 49  1  0  0  0  0
 47 50  1  0  0  0  0
 47 48  1  0  0  0  0
 50 51  2  0  0  0  0
 50 54  1  0  0  0  0
 51 52  1  0  0  0  0
 52 53  2  0  0  0  0
 53 55  1  0  0  0  0
 54 56  1  0  0  0  0
 54 53  1  0  0  0  0
 56 58  1  0  0  0  0
 56 57  1  0  0  0  0
 59 56  1  0  0  0  0
M  END
>  <MODEL>
17

>  <REMARK>
 VINA RESULT:    -6.462      3.666      8.516
 INTER + INTRA:         -10.314
 INTER:                  -9.612
 INTRA:                  -0.702
 UNBOUND:                -1.207
  Name = 
  8 active torsions:
  status: ('A' for Active; 'I' for Inactive)
    1  A    between atoms: C_1  and  C_2
    2  A    between atoms: C_2  and  C_3
    3  A    between atoms: C_2  and  C_10
    4  A    between atoms: C_3  and  C_4
    5  A    between atoms: N_8  and  C_9
    6  A    between atoms: N_13  and  C_14
    7  A    between atoms: C_19  and  N_21
    8  A    between atoms: C_28  and  C_29
                            x       y       z     vdW  Elec       q    Type
                         _______ _______ _______ _____ _____    ______ ____

>  <TORSDO>
F 8

$$$$
=
 OpenBabel07192307433D

 59 63  0  0  1  0  0  0  0  0999 V2000
    4.3610    5.9770   17.0110 C   0  0  0  0  0  0  0  0  0  0  0  0
    3.8290    4.6880   17.0770 C   0  0  0  0  0  0  0  0  0  0  0  0
    2.7160    4.4430   17.8720 C   0  0  0  0  0  0  0  0  0  0  0  0
    2.2150    3.1210   17.9400 N   0  0  0  0  0  0  0  0  0  0  0  0
    2.1440    5.4100   18.6140 N   0  0  0  0  0  0  0  0  0  0  0  0
    2.6520    6.6640   18.5690 C   0  0  0  0  0  0  0  0  0  0  0  0
    3.7510    6.9770   17.7780 C   0  0  0  0  0  0  0  0  0  0  0  0
    4.2810    3.8700   16.5240 H   0  0  0  0  0  0  0  0  0  0  0  0
    2.1060    2.7810   16.9880 H   0  0  0  0  0  0  0  0  0  0  0  0
    4.1530    7.9840   17.7490 H   0  0  0  0  0  0  0  0  0  0  0  0
    2.0060    7.6220   19.3730 N   0  0  0  0  0  0  0  0  0  0  0  0
    1.6360    8.9050   18.7990 C   0  0  0  0  0  0  0  0  0  0  0  0
    0.9910    9.6120   19.9510 C   0  0  0  0  0  0  0  0  0  0  0  0
    1.0000    8.7820   21.0690 C   0  0  0  0  0  0  0  0  0  0  0  0
    0.4680    9.1660   22.2860 C   0  0  0  0  0  0  0  0  0  0  0  0
   -0.0920   10.4410   22.3700 C   0  0  0  0  0  0  0  0  0  0  0  0
   -0.1090   11.2910   21.2480 C   0  0  0  0  0  0  0  0  0  0  0  0
    0.4360   10.8870   20.0140 C   0  0  0  0  0  0  0  0  0  0  0  0
    1.6420    7.5110   20.7070 C   0  0  0  0  0  0  0  0  0  0  0  0
    1.7770    6.5990   21.5000 O   0  0  0  0  0  0  0  0  0  0  0  0
    2.5340    9.4360   18.4670 H   0  0  0  0  0  0  0  0  0  0  0  0
    0.9240    8.7570   17.9820 H   0  0  0  0  0  0  0  0  0  0  0  0
    0.4900    8.4970   23.1400 H   0  0  0  0  0  0  0  0  0  0  0  0
   -0.5210   10.7810   23.3110 H   0  0  0  0  0  0  0  0  0  0  0  0
   -0.5550   12.2810   21.3490 H   0  0  0  0  0  0  0  0  0  0  0  0
    0.4220   11.7880   18.8080 C   0  0  0  0  0  0  0  0  0  0  0  0
   -0.4490   11.3620   17.8550 F   0  0  0  0  0  0  0  0  0  0  0  0
    1.6310   11.8970   18.1910 F   0  0  0  0  0  0  0  0  0  0  0  0
    0.0440   13.0590   19.1180 F   0  0  0  0  0  0  0  0  0  0  0  0
    1.0650    2.7940   18.7450 C   0  0  0  0  0  0  0  0  0  0  0  0
    1.3250    1.5580   19.6390 C   0  0  0  0  0  0  0  0  0  0  0  0
    1.7760    2.5210   20.7570 C   0  0  0  0  0  0  0  0  0  0  0  0
    0.9730    3.6280   20.0450 C   0  0  0  0  0  0  0  0  0  0  0  0
    0.1490    2.7340   18.1480 H   0  0  0  0  0  0  0  0  0  0  0  0
    0.4110    1.0030   19.8860 H   0  0  0  0  0  0  0  0  0  0  0  0
    2.0810    0.8470   19.2970 H   0  0  0  0  0  0  0  0  0  0  0  0
    2.8570    2.7020   20.7730 H   0  0  0  0  0  0  0  0  0  0  0  0
    1.4430    2.2670   21.7660 H   0  0  0  0  0  0  0  0  0  0  0  0
   -0.0540    3.7330   20.4180 H   0  0  0  0  0  0  0  0  0  0  0  0
    1.4400    4.6170   20.0440 H   0  0  0  0  0  0  0  0  0  0  0  0
    5.5910    6.3070   16.1740 C   0  0  2  0  0  0  0  0  0  0  0  0
    6.2120    7.0110   16.7470 H   0  0  0  0  0  0  0  0  0  0  0  0
    5.2000    7.0240   14.8720 C   0  0  0  0  0  0  0  0  0  0  0  0
    4.1720    7.4010   14.9050 H   0  0  0  0  0  0  0  0  0  0  0  0
    5.2730    6.3520   14.0110 H   0  0  0  0  0  0  0  0  0  0  0  0
    5.8630    7.8750   14.6800 H   0  0  0  0  0  0  0  0  0  0  0  0
    6.4030    5.0210   15.9180 C   0  0  0  0  0  0  0  0  0  0  0  0
    6.1090    4.2460   16.6380 H   0  0  0  0  0  0  0  0  0  0  0  0
    7.4690    5.2240   16.0930 H   0  0  0  0  0  0  0  0  0  0  0  0
    6.2690    4.4810   14.5330 C   0  0  0  0  0  0  0  0  0  0  0  0
    5.3030    3.7230   14.0530 N   0  0  0  0  0  0  0  0  0  0  0  0
    5.5740    3.4630   12.7310 N   0  0  0  0  0  0  0  0  0  0  0  0
    6.6920    4.0770   12.4260 C   0  0  0  0  0  0  0  0  0  0  0  0
    7.1610    4.7310   13.5210 N   0  0  0  0  0  0  0  0  0  0  0  0
    7.1760    4.0750   11.4600 H   0  0  0  0  0  0  0  0  0  0  0  0
    8.3550    5.5290   13.5890 C   0  0  0  0  0  0  0  0  0  0  0  0
    8.5210    6.0240   12.6290 H   0  0  0  0  0  0  0  0  0  0  0  0
    9.1990    4.8720   13.8170 H   0  0  0  0  0  0  0  0  0  0  0  0
    8.2320    6.2800   14.3720 H   0  0  0  0  0  0  0  0  0  0  0  0
  1  2  2  0  0  0  0
  1  7  1  0  0  0  0
  2  3  1  0  0  0  0
  3  4  1  0  0  0  0
  3  5  2  0  0  0  0
  4 30  1  0  0  0  0
  6  5  1  0  0  0  0
  6 11  1  0  0  0  0
  7  6  2  0  0  0  0
  8  2  1  0  0  0  0
  9  4  1  0  0  0  0
 10  7  1  0  0  0  0
 11 19  1  0  0  0  0
 12 11  1  0  0  0  0
 12 13  1  0  0  0  0
 13 18  2  0  0  0  0
 13 14  1  0  0  0  0
 14 15  2  0  0  0  0
 15 16  1  0  0  0  0
 15 23  1  0  0  0  0
 16 24  1  0  0  0  0
 17 25  1  0  0  0  0
 17 16  2  0  0  0  0
 18 17  1  0  0  0  0
 19 14  1  0  0  0  0
 19 20  2  0  0  0  0
 21 12  1  0  0  0  0
 22 12  1  0  0  0  0
 26 29  1  0  0  0  0
 26 18  1  0  0  0  0
 27 26  1  0  0  0  0
 28 26  1  0  0  0  0
 30 31  1  0  0  0  0
 30 33  1  0  0  0  0
 31 35  1  0  0  0  0
 31 32  1  0  0  0  0
 32 37  1  0  0  0  0
 32 38  1  0  0  0  0
 33 39  1  0  0  0  0
 33 32  1  0  0  0  0
 34 30  1  0  0  0  0
 36 31  1  0  0  0  0
 40 33  1  0  0  0  0
 41 42  1  1  0  0  0
 41  1  1  0  0  0  0
 43 44  1  0  0  0  0
 43 41  1  0  0  0  0
 45 43  1  0  0  0  0
 46 43  1  0  0  0  0
 47 49  1  0  0  0  0
 47 41  1  0  0  0  0
 47 48  1  0  0  0  0
 50 47  1  0  0  0  0
 51 50  2  0  0  0  0
 52 51  1  0  0  0  0
 53 52  2  0  0  0  0
 53 54  1  0  0  0  0
 54 56  1  0  0  0  0
 54 50  1  0  0  0  0
 55 53  1  0  0  0  0
 56 58  1  0  0  0  0
 56 59  1  0  0  0  0
 57 56  1  0  0  0  0
M  END
>  <MODEL>
18

>  <REMARK>
 VINA RESULT:    -6.254      2.890      3.767
 INTER + INTRA:         -10.020
 INTER:                 -10.013
 INTRA:                  -0.007
 UNBOUND:                -1.207
  Name = 
  8 active torsions:
  status: ('A' for Active; 'I' for Inactive)
    1  A    between atoms: C_1  and  C_2
    2  A    between atoms: C_2  and  C_3
    3  A    between atoms: C_2  and  C_10
    4  A    between atoms: C_3  and  C_4
    5  A    between atoms: N_8  and  C_9
    6  A    between atoms: N_13  and  C_14
    7  A    between atoms: C_19  and  N_21
    8  A    between atoms: C_28  and  C_29
                            x       y       z     vdW  Elec       q    Type
                         _______ _______ _______ _____ _____    ______ ____

>  <TORSDO>
F 8

$$$$
=
 OpenBabel07192307433D

 59 63  0  0  1  0  0  0  0  0999 V2000
   -1.0890   11.6480   18.7820 C   0  0  0  0  0  0  0  0  0  0  0  0
   -0.2380   12.7550   18.8230 C   0  0  0  0  0  0  0  0  0  0  0  0
    1.1340   12.5630   18.9490 C   0  0  0  0  0  0  0  0  0  0  0  0
    1.9690   13.7040   19.0140 N   0  0  0  0  0  0  0  0  0  0  0  0
    1.6730   11.3360   19.0670 N   0  0  0  0  0  0  0  0  0  0  0  0
    0.8620   10.2520   19.0390 C   0  0  0  0  0  0  0  0  0  0  0  0
   -0.5150   10.3770   18.8950 C   0  0  0  0  0  0  0  0  0  0  0  0
   -0.6320   13.7640   18.7680 H   0  0  0  0  0  0  0  0  0  0  0  0
    1.7230   14.3130   18.2380 H   0  0  0  0  0  0  0  0  0  0  0  0
   -1.1580    9.5030   18.8750 H   0  0  0  0  0  0  0  0  0  0  0  0
    1.4940    9.0010   19.1710 N   0  0  0  0  0  0  0  0  0  0  0  0
    2.4850    8.5930   18.1890 C   0  0  0  0  0  0  0  0  0  0  0  0
    2.9040    7.2420   18.6800 C   0  0  0  0  0  0  0  0  0  0  0  0
    2.2040    6.9330   19.8430 C   0  0  0  0  0  0  0  0  0  0  0  0
    2.3830    5.7440   20.5270 C   0  0  0  0  0  0  0  0  0  0  0  0
    3.3080    4.8380   20.0080 C   0  0  0  0  0  0  0  0  0  0  0  0
    4.0230    5.1370   18.8340 C   0  0  0  0  0  0  0  0  0  0  0  0
    3.8310    6.3510   18.1470 C   0  0  0  0  0  0  0  0  0  0  0  0
    1.3060    8.0510   20.1640 C   0  0  0  0  0  0  0  0  0  0  0  0
    0.5800    8.0460   21.1380 O   0  0  0  0  0  0  0  0  0  0  0  0
    2.0200    8.5240   17.2000 H   0  0  0  0  0  0  0  0  0  0  0  0
    3.3270    9.2920   18.1960 H   0  0  0  0  0  0  0  0  0  0  0  0
    1.8220    5.5320   21.4310 H   0  0  0  0  0  0  0  0  0  0  0  0
    3.4770    3.8900   20.5170 H   0  0  0  0  0  0  0  0  0  0  0  0
    4.7380    4.4040   18.4570 H   0  0  0  0  0  0  0  0  0  0  0  0
    4.5920    6.6800   16.8900 C   0  0  0  0  0  0  0  0  0  0  0  0
    4.9540    5.5660   16.1990 F   0  0  0  0  0  0  0  0  0  0  0  0
    5.7410    7.3750   17.1120 F   0  0  0  0  0  0  0  0  0  0  0  0
    3.8580    7.4330   16.0260 F   0  0  0  0  0  0  0  0  0  0  0  0
    3.3990   13.5800   19.1460 C   0  0  0  0  0  0  0  0  0  0  0  0
    4.1220   14.9060   18.8070 C   0  0  0  0  0  0  0  0  0  0  0  0
    4.0610   15.2670   20.3060 C   0  0  0  0  0  0  0  0  0  0  0  0
    3.8960   13.7620   20.6000 C   0  0  0  0  0  0  0  0  0  0  0  0
    3.7870   12.7060   18.6130 H   0  0  0  0  0  0  0  0  0  0  0  0
    5.1440   14.7590   18.4360 H   0  0  0  0  0  0  0  0  0  0  0  0
    3.6050   15.5960   18.1350 H   0  0  0  0  0  0  0  0  0  0  0  0
    3.1860   15.8680   20.5780 H   0  0  0  0  0  0  0  0  0  0  0  0
    4.9570   15.7360   20.7180 H   0  0  0  0  0  0  0  0  0  0  0  0
    4.8450   13.2490   20.7990 H   0  0  0  0  0  0  0  0  0  0  0  0
    3.1980   13.5190   21.4060 H   0  0  0  0  0  0  0  0  0  0  0  0
   -2.6020   11.7910   18.6650 C   0  0  2  0  0  0  0  0  0  0  0  0
   -2.8110   12.5660   17.9130 H   0  0  0  0  0  0  0  0  0  0  0  0
   -3.2160   12.2820   19.9860 C   0  0  0  0  0  0  0  0  0  0  0  0
   -4.2810   12.5140   19.8810 H   0  0  0  0  0  0  0  0  0  0  0  0
   -2.7180   13.1880   20.3430 H   0  0  0  0  0  0  0  0  0  0  0  0
   -3.1140   11.5220   20.7690 H   0  0  0  0  0  0  0  0  0  0  0  0
   -3.2130   10.4570   18.1900 C   0  0  0  0  0  0  0  0  0  0  0  0
   -4.2210   10.3400   18.6080 H   0  0  0  0  0  0  0  0  0  0  0  0
   -2.6130    9.6240   18.5800 H   0  0  0  0  0  0  0  0  0  0  0  0
   -3.2770   10.3120   16.7060 C   0  0  0  0  0  0  0  0  0  0  0  0
   -2.5510    9.5210   15.9410 N   0  0  0  0  0  0  0  0  0  0  0  0
   -2.9430    9.7030   14.6360 N   0  0  0  0  0  0  0  0  0  0  0  0
   -3.9090   10.5890   14.6310 C   0  0  0  0  0  0  0  0  0  0  0  0
   -4.1540   10.9970   15.9040 N   0  0  0  0  0  0  0  0  0  0  0  0
   -4.4370   10.9500   13.7600 H   0  0  0  0  0  0  0  0  0  0  0  0
   -5.1470   11.9520   16.3160 C   0  0  0  0  0  0  0  0  0  0  0  0
   -6.1430   11.5800   16.0600 H   0  0  0  0  0  0  0  0  0  0  0  0
   -4.9600   12.8940   15.7940 H   0  0  0  0  0  0  0  0  0  0  0  0
   -5.0750   12.0910   17.3960 H   0  0  0  0  0  0  0  0  0  0  0  0
  1  2  2  0  0  0  0
  1  7  1  0  0  0  0
  2  3  1  0  0  0  0
  3  4  1  0  0  0  0
  3  5  2  0  0  0  0
  4 30  1  0  0  0  0
  6  5  1  0  0  0  0
  6 11  1  0  0  0  0
  7  6  2  0  0  0  0
  8  2  1  0  0  0  0
  9  4  1  0  0  0  0
 10  7  1  0  0  0  0
 11 19  1  0  0  0  0
 12 22  1  0  0  0  0
 12 13  1  0  0  0  0
 12 11  1  0  0  0  0
 13 14  1  0  0  0  0
 14 19  1  0  0  0  0
 14 15  2  0  0  0  0
 15 23  1  0  0  0  0
 16 24  1  0  0  0  0
 16 15  1  0  0  0  0
 17 16  2  0  0  0  0
 18 13  2  0  0  0  0
 18 17  1  0  0  0  0
 19 20  2  0  0  0  0
 21 12  1  0  0  0  0
 25 17  1  0  0  0  0
 26 28  1  0  0  0  0
 26 18  1  0  0  0  0
 27 26  1  0  0  0  0
 29 26  1  0  0  0  0
 30 33  1  0  0  0  0
 31 30  1  0  0  0  0
 31 32  1  0  0  0  0
 32 37  1  0  0  0  0
 32 33  1  0  0  0  0
 32 38  1  0  0  0  0
 33 39  1  0  0  0  0
 33 40  1  0  0  0  0
 34 30  1  0  0  0  0
 35 31  1  0  0  0  0
 36 31  1  0  0  0  0
 41 42  1  6  0  0  0
 41  1  1  0  0  0  0
 41 43  1  0  0  0  0
 43 45  1  0  0  0  0
 43 46  1  0  0  0  0
 44 43  1  0  0  0  0
 47 49  1  0  0  0  0
 47 48  1  0  0  0  0
 47 41  1  0  0  0  0
 50 47  1  0  0  0  0
 51 50  2  0  0  0  0
 52 51  1  0  0  0  0
 53 52  2  0  0  0  0
 53 54  1  0  0  0  0
 54 56  1  0  0  0  0
 54 50  1  0  0  0  0
 55 53  1  0  0  0  0
 56 59  1  0  0  0  0
 57 56  1  0  0  0  0
 58 56  1  0  0  0  0
M  END
>  <MODEL>
19

>  <REMARK>
 VINA RESULT:    -6.242      4.323      9.126
 INTER + INTRA:         -10.003
 INTER:                  -9.001
 INTRA:                  -1.002
 UNBOUND:                -1.207
  Name = 
  8 active torsions:
  status: ('A' for Active; 'I' for Inactive)
    1  A    between atoms: C_1  and  C_2
    2  A    between atoms: C_2  and  C_3
    3  A    between atoms: C_2  and  C_10
    4  A    between atoms: C_3  and  C_4
    5  A    between atoms: N_8  and  C_9
    6  A    between atoms: N_13  and  C_14
    7  A    between atoms: C_19  and  N_21
    8  A    between atoms: C_28  and  C_29
                            x       y       z     vdW  Elec       q    Type
                         _______ _______ _______ _____ _____    ______ ____

>  <TORSDO>
F 8

$$$$
=
 OpenBabel07192307433D

 59 63  0  0  1  0  0  0  0  0999 V2000
   -0.0910   11.0970   21.6830 C   0  0  0  0  0  0  0  0  0  0  0  0
    0.2380   12.2860   21.0290 C   0  0  0  0  0  0  0  0  0  0  0  0
    1.0390   12.2470   19.8930 C   0  0  0  0  0  0  0  0  0  0  0  0
    1.3780   13.4700   19.2660 N   0  0  0  0  0  0  0  0  0  0  0  0
    1.5390   11.0930   19.4140 N   0  0  0  0  0  0  0  0  0  0  0  0
    1.2380    9.9320   20.0410 C   0  0  0  0  0  0  0  0  0  0  0  0
    0.4260    9.9030   21.1690 C   0  0  0  0  0  0  0  0  0  0  0  0
   -0.1130   13.2430   21.4020 H   0  0  0  0  0  0  0  0  0  0  0  0
    0.5200   13.9970   19.1290 H   0  0  0  0  0  0  0  0  0  0  0  0
    0.1900    8.9670   21.6660 H   0  0  0  0  0  0  0  0  0  0  0  0
    1.7980    8.7650   19.4870 N   0  0  0  0  0  0  0  0  0  0  0  0
    1.6380    7.4960   20.1770 C   0  0  0  0  0  0  0  0  0  0  0  0
    2.3590    6.5370   19.2830 C   0  0  0  0  0  0  0  0  0  0  0  0
    2.8720    7.2210   18.1840 C   0  0  0  0  0  0  0  0  0  0  0  0
    3.5890    6.5930   17.1830 C   0  0  0  0  0  0  0  0  0  0  0  0
    3.7910    5.2180   17.3030 C   0  0  0  0  0  0  0  0  0  0  0  0
    3.2790    4.5120   18.4080 C   0  0  0  0  0  0  0  0  0  0  0  0
    2.5500    5.1650   19.4210 C   0  0  0  0  0  0  0  0  0  0  0  0
    2.5150    8.6420   18.3060 C   0  0  0  0  0  0  0  0  0  0  0  0
    2.8360    9.4680   17.4740 O   0  0  0  0  0  0  0  0  0  0  0  0
    2.1120    7.5470   21.1620 H   0  0  0  0  0  0  0  0  0  0  0  0
    0.5750    7.2430   20.2490 H   0  0  0  0  0  0  0  0  0  0  0  0
    3.9770    7.1540   16.3380 H   0  0  0  0  0  0  0  0  0  0  0  0
    4.3520    4.6860   16.5350 H   0  0  0  0  0  0  0  0  0  0  0  0
    3.4560    3.4380   18.4690 H   0  0  0  0  0  0  0  0  0  0  0  0
    1.9960    4.4190   20.6050 C   0  0  0  0  0  0  0  0  0  0  0  0
    0.6420    4.5160   20.6890 F   0  0  0  0  0  0  0  0  0  0  0  0
    2.4790    4.8540   21.8010 F   0  0  0  0  0  0  0  0  0  0  0  0
    2.2730    3.0870   20.5510 F   0  0  0  0  0  0  0  0  0  0  0  0
    2.2050   13.5050   18.0860 C   0  0  0  0  0  0  0  0  0  0  0  0
    2.4460   14.9540   17.5990 C   0  0  0  0  0  0  0  0  0  0  0  0
    3.7340   14.9740   18.4470 C   0  0  0  0  0  0  0  0  0  0  0  0
    3.7180   13.4330   18.4000 C   0  0  0  0  0  0  0  0  0  0  0  0
    1.8430   12.8230   17.3110 H   0  0  0  0  0  0  0  0  0  0  0  0
    2.6330   15.0220   16.5200 H   0  0  0  0  0  0  0  0  0  0  0  0
    1.6930   15.7000   17.8680 H   0  0  0  0  0  0  0  0  0  0  0  0
    3.5930   15.3860   19.4520 H   0  0  0  0  0  0  0  0  0  0  0  0
    4.5990   15.4550   17.9840 H   0  0  0  0  0  0  0  0  0  0  0  0
    4.3100   13.0150   17.5750 H   0  0  0  0  0  0  0  0  0  0  0  0
    4.0190   12.9350   19.3260 H   0  0  0  0  0  0  0  0  0  0  0  0
   -0.9480   11.0740   22.9430 C   0  0  2  0  0  0  0  0  0  0  0  0
   -0.3760   11.5540   23.7500 H   0  0  0  0  0  0  0  0  0  0  0  0
   -1.2260    9.6330   23.3980 C   0  0  0  0  0  0  0  0  0  0  0  0
   -0.3150    9.0230   23.4060 H   0  0  0  0  0  0  0  0  0  0  0  0
   -1.9430    9.1380   22.7350 H   0  0  0  0  0  0  0  0  0  0  0  0
   -1.6490    9.6170   24.4080 H   0  0  0  0  0  0  0  0  0  0  0  0
   -2.2430   11.8770   22.7050 C   0  0  0  0  0  0  0  0  0  0  0  0
   -3.1160   11.2290   22.8580 H   0  0  0  0  0  0  0  0  0  0  0  0
   -2.2780   12.2070   21.6570 H   0  0  0  0  0  0  0  0  0  0  0  0
   -2.3740   13.0900   23.5650 C   0  0  0  0  0  0  0  0  0  0  0  0
   -1.5340   14.1000   23.6690 N   0  0  0  0  0  0  0  0  0  0  0  0
   -2.0490   15.0010   24.5690 N   0  0  0  0  0  0  0  0  0  0  0  0
   -3.1990   14.5300   24.9880 C   0  0  0  0  0  0  0  0  0  0  0  0
   -3.4460   13.3380   24.3840 N   0  0  0  0  0  0  0  0  0  0  0  0
   -3.8590   15.0040   25.7000 H   0  0  0  0  0  0  0  0  0  0  0  0
   -4.6090   12.5150   24.5710 C   0  0  0  0  0  0  0  0  0  0  0  0
   -5.3010   13.0070   25.2590 H   0  0  0  0  0  0  0  0  0  0  0  0
   -4.2930   11.5560   24.9890 H   0  0  0  0  0  0  0  0  0  0  0  0
   -5.0960   12.3690   23.6040 H   0  0  0  0  0  0  0  0  0  0  0  0
  1 41  1  0  0  0  0
  2  8  1  0  0  0  0
  2  1  2  0  0  0  0
  3  2  1  0  0  0  0
  4  3  1  0  0  0  0
  5  3  2  0  0  0  0
  5  6  1  0  0  0  0
  6  7  2  0  0  0  0
  7 10  1  0  0  0  0
  7  1  1  0  0  0  0
  9  4  1  0  0  0  0
 11  6  1  0  0  0  0
 11 12  1  0  0  0  0
 12 22  1  0  0  0  0
 12 21  1  0  0  0  0
 13 18  1  0  0  0  0
 13 12  1  0  0  0  0
 14 19  1  0  0  0  0
 14 13  2  0  0  0  0
 15 16  2  0  0  0  0
 15 14  1  0  0  0  0
 16 17  1  0  0  0  0
 17 25  1  0  0  0  0
 17 18  2  0  0  0  0
 18 26  1  0  0  0  0
 19 11  1  0  0  0  0
 20 19  2  0  0  0  0
 23 15  1  0  0  0  0
 24 16  1  0  0  0  0
 26 27  1  0  0  0  0
 26 28  1  0  0  0  0
 29 26  1  0  0  0  0
 30 33  1  0  0  0  0
 30  4  1  0  0  0  0
 31 36  1  0  0  0  0
 31 30  1  0  0  0  0
 31 32  1  0  0  0  0
 32 37  1  0  0  0  0
 33 32  1  0  0  0  0
 33 40  1  0  0  0  0
 34 30  1  0  0  0  0
 35 31  1  0  0  0  0
 38 32  1  0  0  0  0
 39 33  1  0  0  0  0
 41 43  1  0  0  0  0
 41 42  1  1  0  0  0
 43 44  1  0  0  0  0
 43 46  1  0  0  0  0
 45 43  1  0  0  0  0
 47 48  1  0  0  0  0
 47 41  1  0  0  0  0
 47 50  1  0  0  0  0
 49 47  1  0  0  0  0
 50 51  2  0  0  0  0
 50 54  1  0  0  0  0
 51 52  1  0  0  0  0
 52 53  2  0  0  0  0
 53 55  1  0  0  0  0
 54 56  1  0  0  0  0
 54 53  1  0  0  0  0
 56 58  1  0  0  0  0
 56 57  1  0  0  0  0
 59 56  1  0  0  0  0
M  END
>  <MODEL>
20

>  <REMARK>
 VINA RESULT:    -6.065      3.939      9.201
 INTER + INTRA:          -9.754
 INTER:                  -8.906
 INTRA:                  -0.847
 UNBOUND:                -1.207
  Name = 
  8 active torsions:
  status: ('A' for Active; 'I' for Inactive)
    1  A    between atoms: C_1  and  C_2
    2  A    between atoms: C_2  and  C_3
    3  A    between atoms: C_2  and  C_10
    4  A    between atoms: C_3  and  C_4
    5  A    between atoms: N_8  and  C_9
    6  A    between atoms: N_13  and  C_14
    7  A    between atoms: C_19  and  N_21
    8  A    between atoms: C_28  and  C_29
                            x       y       z     vdW  Elec       q    Type
                         _______ _______ _______ _____ _____    ______ ____

>  <TORSDO>
F 8

$$$$
=
 OpenBabel07192307433D

 59 63  0  0  1  0  0  0  0  0999 V2000
    4.4090    3.5620   19.6460 C   0  0  0  0  0  0  0  0  0  0  0  0
    5.1010    3.3160   18.4580 C   0  0  0  0  0  0  0  0  0  0  0  0
    5.0970    4.2720   17.4490 C   0  0  0  0  0  0  0  0  0  0  0  0
    5.7850    3.9840   16.2460 N   0  0  0  0  0  0  0  0  0  0  0  0
    4.4160    5.4270   17.5660 N   0  0  0  0  0  0  0  0  0  0  0  0
    3.7320    5.6790   18.7060 C   0  0  0  0  0  0  0  0  0  0  0  0
    3.7130    4.7710   19.7590 C   0  0  0  0  0  0  0  0  0  0  0  0
    5.6330    2.3820   18.3070 H   0  0  0  0  0  0  0  0  0  0  0  0
    6.7200    3.6690   16.4910 H   0  0  0  0  0  0  0  0  0  0  0  0
    3.1620    4.9800   20.6700 H   0  0  0  0  0  0  0  0  0  0  0  0
    3.0410    6.9040   18.7560 N   0  0  0  0  0  0  0  0  0  0  0  0
    2.2020    7.2060   19.9040 C   0  0  0  0  0  0  0  0  0  0  0  0
    1.6640    8.5640   19.5750 C   0  0  0  0  0  0  0  0  0  0  0  0
    2.1710    8.9800   18.3470 C   0  0  0  0  0  0  0  0  0  0  0  0
    1.8490   10.2010   17.7830 C   0  0  0  0  0  0  0  0  0  0  0  0
    0.9800   11.0280   18.4940 C   0  0  0  0  0  0  0  0  0  0  0  0
    0.4600   10.6210   19.7370 C   0  0  0  0  0  0  0  0  0  0  0  0
    0.7960    9.3750   20.3000 C   0  0  0  0  0  0  0  0  0  0  0  0
    3.0520    7.9280   17.8210 C   0  0  0  0  0  0  0  0  0  0  0  0
    3.6340    8.0350   16.7590 O   0  0  0  0  0  0  0  0  0  0  0  0
    1.3940    6.4710   19.9760 H   0  0  0  0  0  0  0  0  0  0  0  0
    2.8100    7.2340   20.8140 H   0  0  0  0  0  0  0  0  0  0  0  0
    2.2600   10.4970   16.8230 H   0  0  0  0  0  0  0  0  0  0  0  0
    0.7020   11.9970   18.0830 H   0  0  0  0  0  0  0  0  0  0  0  0
   -0.2170   11.2940   20.2650 H   0  0  0  0  0  0  0  0  0  0  0  0
    0.2450    8.9320   21.6290 C   0  0  0  0  0  0  0  0  0  0  0  0
    1.2280    8.6670   22.5320 F   0  0  0  0  0  0  0  0  0  0  0  0
   -0.5150    7.8050   21.5590 F   0  0  0  0  0  0  0  0  0  0  0  0
   -0.5430    9.8820   22.2030 F   0  0  0  0  0  0  0  0  0  0  0  0
    5.8220    4.9270   15.1570 C   0  0  0  0  0  0  0  0  0  0  0  0
    7.1580    4.8530   14.3810 C   0  0  0  0  0  0  0  0  0  0  0  0
    6.4910    3.8450   13.4230 C   0  0  0  0  0  0  0  0  0  0  0  0
    5.1290    4.4080   13.8760 C   0  0  0  0  0  0  0  0  0  0  0  0
    5.5430    5.9360   15.4780 H   0  0  0  0  0  0  0  0  0  0  0  0
    7.4300    5.7990   13.8960 H   0  0  0  0  0  0  0  0  0  0  0  0
    8.0300    4.4800   14.9250 H   0  0  0  0  0  0  0  0  0  0  0  0
    6.6510    2.7980   13.7050 H   0  0  0  0  0  0  0  0  0  0  0  0
    6.7270    3.9680   12.3640 H   0  0  0  0  0  0  0  0  0  0  0  0
    4.7530    5.2130   13.2320 H   0  0  0  0  0  0  0  0  0  0  0  0
    4.3340    3.6660   13.9970 H   0  0  0  0  0  0  0  0  0  0  0  0
    4.3570    2.5470   20.7820 C   0  0  2  0  0  0  0  0  0  0  0  0
    4.9470    2.9470   21.6200 H   0  0  0  0  0  0  0  0  0  0  0  0
    5.0170    1.2220   20.3710 C   0  0  0  0  0  0  0  0  0  0  0  0
    4.3100    0.3860   20.4000 H   0  0  0  0  0  0  0  0  0  0  0  0
    5.8490    0.9690   21.0360 H   0  0  0  0  0  0  0  0  0  0  0  0
    5.4190    1.2850   19.3530 H   0  0  0  0  0  0  0  0  0  0  0  0
    2.8980    2.3610   21.2440 C   0  0  0  0  0  0  0  0  0  0  0  0
    2.6340    3.1430   21.9670 H   0  0  0  0  0  0  0  0  0  0  0  0
    2.8030    1.4010   21.7710 H   0  0  0  0  0  0  0  0  0  0  0  0
    1.9020    2.3650   20.1320 C   0  0  0  0  0  0  0  0  0  0  0  0
    1.7660    1.4760   19.1680 N   0  0  0  0  0  0  0  0  0  0  0  0
    0.7220    1.8670   18.3640 N   0  0  0  0  0  0  0  0  0  0  0  0
    0.2320    2.9780   18.8590 C   0  0  0  0  0  0  0  0  0  0  0  0
    0.9370    3.3260   19.9680 N   0  0  0  0  0  0  0  0  0  0  0  0
   -0.6000    3.5400   18.4610 H   0  0  0  0  0  0  0  0  0  0  0  0
    0.7010    4.4740   20.8000 C   0  0  0  0  0  0  0  0  0  0  0  0
    1.2360    4.3580   21.7470 H   0  0  0  0  0  0  0  0  0  0  0  0
   -0.3720    4.5520   20.9890 H   0  0  0  0  0  0  0  0  0  0  0  0
    1.0650    5.3650   20.2820 H   0  0  0  0  0  0  0  0  0  0  0  0
  1  7  1  0  0  0  0
  1 41  1  0  0  0  0
  2  1  2  0  0  0  0
  3  5  2  0  0  0  0
  3  2  1  0  0  0  0
  4  9  1  0  0  0  0
  4  3  1  0  0  0  0
  5  6  1  0  0  0  0
  6 11  1  0  0  0  0
  6  7  2  0  0  0  0
  7 10  1  0  0  0  0
  8  2  1  0  0  0  0
 11 12  1  0  0  0  0
 12 21  1  0  0  0  0
 12 22  1  0  0  0  0
 13 12  1  0  0  0  0
 13 18  1  0  0  0  0
 14 13  2  0  0  0  0
 15 14  1  0  0  0  0
 15 16  2  0  0  0  0
 16 17  1  0  0  0  0
 17 25  1  0  0  0  0
 17 18  2  0  0  0  0
 18 26  1  0  0  0  0
 19 14  1  0  0  0  0
 19 11  1  0  0  0  0
 20 19  2  0  0  0  0
 23 15  1  0  0  0  0
 24 16  1  0  0  0  0
 26 29  1  0  0  0  0
 26 27  1  0  0  0  0
 28 26  1  0  0  0  0
 30 34  1  0  0  0  0
 30  4  1  0  0  0  0
 31 36  1  0  0  0  0
 31 30  1  0  0  0  0
 32 37  1  0  0  0  0
 32 33  1  0  0  0  0
 32 31  1  0  0  0  0
 33 40  1  0  0  0  0
 33 30  1  0  0  0  0
 35 31  1  0  0  0  0
 38 32  1  0  0  0  0
 39 33  1  0  0  0  0
 41 47  1  0  0  0  0
 41 42  1  1  0  0  0
 43 44  1  0  0  0  0
 43 41  1  0  0  0  0
 43 45  1  0  0  0  0
 46 43  1  0  0  0  0
 47 49  1  0  0  0  0
 47 48  1  0  0  0  0
 50 47  1  0  0  0  0
 51 50  2  0  0  0  0
 52 53  2  0  0  0  0
 52 51  1  0  0  0  0
 53 54  1  0  0  0  0
 54 50  1  0  0  0  0
 54 56  1  0  0  0  0
 55 53  1  0  0  0  0
 56 58  1  0  0  0  0
 56 57  1  0  0  0  0
 59 56  1  0  0  0  0
M  END
>  <MODEL>
21

>  <REMARK>
 VINA RESULT:    -5.979      2.214      5.406
 INTER + INTRA:          -9.632
 INTER:                  -9.556
 INTRA:                  -0.075
 UNBOUND:                -1.207
  Name = 
  8 active torsions:
  status: ('A' for Active; 'I' for Inactive)
    1  A    between atoms: C_1  and  C_2
    2  A    between atoms: C_2  and  C_3
    3  A    between atoms: C_2  and  C_10
    4  A    between atoms: C_3  and  C_4
    5  A    between atoms: N_8  and  C_9
    6  A    between atoms: N_13  and  C_14
    7  A    between atoms: C_19  and  N_21
    8  A    between atoms: C_28  and  C_29
                            x       y       z     vdW  Elec       q    Type
                         _______ _______ _______ _____ _____    ______ ____

>  <TORSDO>
F 8

$$$$
=
 OpenBabel07192307433D

 59 63  0  0  1  0  0  0  0  0999 V2000
    2.0230    4.8420   20.5210 C   0  0  0  0  0  0  0  0  0  0  0  0
    3.2180    4.7570   19.8040 C   0  0  0  0  0  0  0  0  0  0  0  0
    3.7620    5.9040   19.2350 C   0  0  0  0  0  0  0  0  0  0  0  0
    4.9600    5.7830   18.4920 N   0  0  0  0  0  0  0  0  0  0  0  0
    3.1530    7.1010   19.3270 N   0  0  0  0  0  0  0  0  0  0  0  0
    1.9890    7.2000   20.0110 C   0  0  0  0  0  0  0  0  0  0  0  0
    1.4050    6.0940   20.6180 C   0  0  0  0  0  0  0  0  0  0  0  0
    3.7240    3.8060   19.6730 H   0  0  0  0  0  0  0  0  0  0  0  0
    5.6260    5.2670   19.0590 H   0  0  0  0  0  0  0  0  0  0  0  0
    0.4710    6.1820   21.1640 H   0  0  0  0  0  0  0  0  0  0  0  0
    1.4080    8.4810   20.0620 N   0  0  0  0  0  0  0  0  0  0  0  0
    1.9970    9.5660   19.2950 C   0  0  0  0  0  0  0  0  0  0  0  0
    1.1040   10.7240   19.6150 C   0  0  0  0  0  0  0  0  0  0  0  0
    0.0990   10.3100   20.4850 C   0  0  0  0  0  0  0  0  0  0  0  0
   -0.8790   11.1660   20.9560 C   0  0  0  0  0  0  0  0  0  0  0  0
   -0.8330   12.4920   20.5270 C   0  0  0  0  0  0  0  0  0  0  0  0
    0.1770   12.9260   19.6470 C   0  0  0  0  0  0  0  0  0  0  0  0
    1.1670   12.0430   19.1750 C   0  0  0  0  0  0  0  0  0  0  0  0
    0.2850    8.8800   20.7710 C   0  0  0  0  0  0  0  0  0  0  0  0
   -0.4620    8.2590   21.5030 O   0  0  0  0  0  0  0  0  0  0  0  0
    3.0190    9.7520   19.6400 H   0  0  0  0  0  0  0  0  0  0  0  0
    1.9640    9.3280   18.2270 H   0  0  0  0  0  0  0  0  0  0  0  0
   -1.6490   10.8130   21.6340 H   0  0  0  0  0  0  0  0  0  0  0  0
   -1.5850   13.1980   20.8760 H   0  0  0  0  0  0  0  0  0  0  0  0
    0.1820   13.9700   19.3320 H   0  0  0  0  0  0  0  0  0  0  0  0
    2.2500   12.4970   18.2330 C   0  0  0  0  0  0  0  0  0  0  0  0
    1.8280   13.4840   17.3980 F   0  0  0  0  0  0  0  0  0  0  0  0
    2.7310   11.5070   17.4320 F   0  0  0  0  0  0  0  0  0  0  0  0
    3.3290   13.0020   18.8930 F   0  0  0  0  0  0  0  0  0  0  0  0
    5.5790    6.9290   17.8740 C   0  0  0  0  0  0  0  0  0  0  0  0
    7.1190    6.7920   17.8280 C   0  0  0  0  0  0  0  0  0  0  0  0
    6.9750    6.1700   16.4240 C   0  0  0  0  0  0  0  0  0  0  0  0
    5.5960    6.8530   16.3290 C   0  0  0  0  0  0  0  0  0  0  0  0
    5.2220    7.8700   18.3040 H   0  0  0  0  0  0  0  0  0  0  0  0
    7.6400    7.7580   17.8250 H   0  0  0  0  0  0  0  0  0  0  0  0
    7.5840    6.1510   18.5820 H   0  0  0  0  0  0  0  0  0  0  0  0
    6.9250    5.0750   16.4300 H   0  0  0  0  0  0  0  0  0  0  0  0
    7.7150    6.4880   15.6860 H   0  0  0  0  0  0  0  0  0  0  0  0
    5.6300    7.8400   15.8490 H   0  0  0  0  0  0  0  0  0  0  0  0
    4.8150    6.2620   15.8430 H   0  0  0  0  0  0  0  0  0  0  0  0
    1.3650    3.6200   21.1510 C   0  0  2  0  0  0  0  0  0  0  0  0
    0.5210    3.9680   21.7640 H   0  0  0  0  0  0  0  0  0  0  0  0
    2.3320    2.8990   22.1020 C   0  0  0  0  0  0  0  0  0  0  0  0
    1.8370    2.0950   22.6580 H   0  0  0  0  0  0  0  0  0  0  0  0
    2.7580    3.5900   22.8370 H   0  0  0  0  0  0  0  0  0  0  0  0
    3.1680    2.4560   21.5470 H   0  0  0  0  0  0  0  0  0  0  0  0
    0.8270    2.6930   20.0420 C   0  0  0  0  0  0  0  0  0  0  0  0
   -0.0370    3.1620   19.5520 H   0  0  0  0  0  0  0  0  0  0  0  0
    0.4620    1.7600   20.4940 H   0  0  0  0  0  0  0  0  0  0  0  0
    1.8400    2.3280   19.0090 C   0  0  0  0  0  0  0  0  0  0  0  0
    2.7540    1.3810   19.0740 N   0  0  0  0  0  0  0  0  0  0  0  0
    3.4700    1.3890   17.9010 N   0  0  0  0  0  0  0  0  0  0  0  0
    2.9700    2.3300   17.1370 C   0  0  0  0  0  0  0  0  0  0  0  0
    1.9460    2.9430   17.7870 N   0  0  0  0  0  0  0  0  0  0  0  0
    3.3080    2.5910   16.1440 H   0  0  0  0  0  0  0  0  0  0  0  0
    1.1370    4.0170   17.2780 C   0  0  0  0  0  0  0  0  0  0  0  0
    1.5560    4.9750   17.5960 H   0  0  0  0  0  0  0  0  0  0  0  0
    0.1240    3.9070   17.6750 H   0  0  0  0  0  0  0  0  0  0  0  0
    1.1290    3.9650   16.1880 H   0  0  0  0  0  0  0  0  0  0  0  0
  1  7  1  0  0  0  0
  1 41  1  0  0  0  0
  2  1  2  0  0  0  0
  3  5  2  0  0  0  0
  3  2  1  0  0  0  0
  4  9  1  0  0  0  0
  4  3  1  0  0  0  0
  5  6  1  0  0  0  0
  6 11  1  0  0  0  0
  6  7  2  0  0  0  0
  7 10  1  0  0  0  0
  8  2  1  0  0  0  0
 11 19  1  0  0  0  0
 12 13  1  0  0  0  0
 12 21  1  0  0  0  0
 12 11  1  0  0  0  0
 13 14  1  0  0  0  0
 14 19  1  0  0  0  0
 14 15  2  0  0  0  0
 15 23  1  0  0  0  0
 16 24  1  0  0  0  0
 16 15  1  0  0  0  0
 17 16  2  0  0  0  0
 18 13  2  0  0  0  0
 18 17  1  0  0  0  0
 19 20  2  0  0  0  0
 22 12  1  0  0  0  0
 25 17  1  0  0  0  0
 26 29  1  0  0  0  0
 26 18  1  0  0  0  0
 27 26  1  0  0  0  0
 28 26  1  0  0  0  0
 30 34  1  0  0  0  0
 30  4  1  0  0  0  0
 31 30  1  0  0  0  0
 31 36  1  0  0  0  0
 32 37  1  0  0  0  0
 32 31  1  0  0  0  0
 33 32  1  0  0  0  0
 33 30  1  0  0  0  0
 35 31  1  0  0  0  0
 38 32  1  0  0  0  0
 39 33  1  0  0  0  0
 40 33  1  0  0  0  0
 41 42  1  1  0  0  0
 41 43  1  0  0  0  0
 43 44  1  0  0  0  0
 43 45  1  0  0  0  0
 46 43  1  0  0  0  0
 47 49  1  0  0  0  0
 47 41  1  0  0  0  0
 48 47  1  0  0  0  0
 50 51  2  0  0  0  0
 50 47  1  0  0  0  0
 52 51  1  0  0  0  0
 53 54  1  0  0  0  0
 53 52  2  0  0  0  0
 54 50  1  0  0  0  0
 55 53  1  0  0  0  0
 56 57  1  0  0  0  0
 56 58  1  0  0  0  0
 56 54  1  0  0  0  0
 59 56  1  0  0  0  0
M  END
>  <MODEL>
22

>  <REMARK>
 VINA RESULT:    -5.693      2.781      5.608
 INTER + INTRA:          -9.229
 INTER:                  -9.672
 INTRA:                   0.443
 UNBOUND:                -1.207
  Name = 
  8 active torsions:
  status: ('A' for Active; 'I' for Inactive)
    1  A    between atoms: C_1  and  C_2
    2  A    between atoms: C_2  and  C_3
    3  A    between atoms: C_2  and  C_10
    4  A    between atoms: C_3  and  C_4
    5  A    between atoms: N_8  and  C_9
    6  A    between atoms: N_13  and  C_14
    7  A    between atoms: C_19  and  N_21
    8  A    between atoms: C_28  and  C_29
                            x       y       z     vdW  Elec       q    Type
                         _______ _______ _______ _____ _____    ______ ____

>  <TORSDO>
F 8

$$$$
=
 OpenBabel07192307433D

 59 63  0  0  1  0  0  0  0  0999 V2000
    2.6540    4.7050   17.8230 C   0  0  0  0  0  0  0  0  0  0  0  0
    4.0470    4.7970   17.7990 C   0  0  0  0  0  0  0  0  0  0  0  0
    4.6660    5.9710   18.2140 C   0  0  0  0  0  0  0  0  0  0  0  0
    6.0790    6.0440   18.1550 N   0  0  0  0  0  0  0  0  0  0  0  0
    3.9600    7.0450   18.6130 N   0  0  0  0  0  0  0  0  0  0  0  0
    2.6090    6.9770   18.6330 C   0  0  0  0  0  0  0  0  0  0  0  0
    1.9320    5.8250   18.2490 C   0  0  0  0  0  0  0  0  0  0  0  0
    4.6550    3.9680   17.4510 H   0  0  0  0  0  0  0  0  0  0  0  0
    6.4510    5.2160   18.6110 H   0  0  0  0  0  0  0  0  0  0  0  0
    0.8480    5.7800   18.2670 H   0  0  0  0  0  0  0  0  0  0  0  0
    1.9360    8.1390   19.0570 N   0  0  0  0  0  0  0  0  0  0  0  0
    1.3320    8.1740   20.3780 C   0  0  0  0  0  0  0  0  0  0  0  0
    0.7370    9.5470   20.4360 C   0  0  0  0  0  0  0  0  0  0  0  0
    0.9980   10.2170   19.2440 C   0  0  0  0  0  0  0  0  0  0  0  0
    0.5710   11.5110   19.0070 C   0  0  0  0  0  0  0  0  0  0  0  0
   -0.1480   12.1450   20.0200 C   0  0  0  0  0  0  0  0  0  0  0  0
   -0.4190   11.4810   21.2310 C   0  0  0  0  0  0  0  0  0  0  0  0
    0.0220   10.1630   21.4590 C   0  0  0  0  0  0  0  0  0  0  0  0
    1.7650    9.3270   18.3620 C   0  0  0  0  0  0  0  0  0  0  0  0
    2.1320    9.6650   17.2530 O   0  0  0  0  0  0  0  0  0  0  0  0
    0.5540    7.4070   20.4510 H   0  0  0  0  0  0  0  0  0  0  0  0
    2.1030    8.0480   21.1450 H   0  0  0  0  0  0  0  0  0  0  0  0
    0.7900   12.0070   18.0670 H   0  0  0  0  0  0  0  0  0  0  0  0
   -0.5030   13.1640   19.8720 H   0  0  0  0  0  0  0  0  0  0  0  0
   -0.9840   12.0080   22.0010 H   0  0  0  0  0  0  0  0  0  0  0  0
   -0.2620    9.4440   22.7510 C   0  0  0  0  0  0  0  0  0  0  0  0
   -1.1340   10.1280   23.5410 F   0  0  0  0  0  0  0  0  0  0  0  0
    0.8450    9.2280   23.5120 F   0  0  0  0  0  0  0  0  0  0  0  0
   -0.8230    8.2210   22.5480 F   0  0  0  0  0  0  0  0  0  0  0  0
    6.7870    7.2290   18.5680 C   0  0  0  0  0  0  0  0  0  0  0  0
    8.3200    7.0410   18.4750 C   0  0  0  0  0  0  0  0  0  0  0  0
    8.2590    7.6290   17.0510 C   0  0  0  0  0  0  0  0  0  0  0  0
    6.9190    8.2840   17.4430 C   0  0  0  0  0  0  0  0  0  0  0  0
    6.4350    7.6020   19.5350 H   0  0  0  0  0  0  0  0  0  0  0  0
    8.8760    7.6700   19.1820 H   0  0  0  0  0  0  0  0  0  0  0  0
    8.7010    6.0190   18.5470 H   0  0  0  0  0  0  0  0  0  0  0  0
    8.1660    6.8710   16.2650 H   0  0  0  0  0  0  0  0  0  0  0  0
    9.0640    8.3180   16.7870 H   0  0  0  0  0  0  0  0  0  0  0  0
    7.0270    9.3080   17.8220 H   0  0  0  0  0  0  0  0  0  0  0  0
    6.1550    8.2860   16.6610 H   0  0  0  0  0  0  0  0  0  0  0  0
    1.9140    3.4540   17.3620 C   0  0  2  0  0  0  0  0  0  0  0  0
    2.1890    3.2660   16.3140 H   0  0  0  0  0  0  0  0  0  0  0  0
    0.3940    3.6690   17.3880 C   0  0  0  0  0  0  0  0  0  0  0  0
   -0.1360    2.8020   17.7980 H   0  0  0  0  0  0  0  0  0  0  0  0
   -0.0010    3.8460   16.3820 H   0  0  0  0  0  0  0  0  0  0  0  0
    0.1330    4.5410   17.9990 H   0  0  0  0  0  0  0  0  0  0  0  0
    2.3540    2.2480   18.2170 C   0  0  0  0  0  0  0  0  0  0  0  0
    3.4100    2.0190   18.0210 H   0  0  0  0  0  0  0  0  0  0  0  0
    1.7800    1.3610   17.9170 H   0  0  0  0  0  0  0  0  0  0  0  0
    2.1580    2.4390   19.6850 C   0  0  0  0  0  0  0  0  0  0  0  0
    1.0250    2.6340   20.3280 N   0  0  0  0  0  0  0  0  0  0  0  0
    1.3030    2.7530   21.6690 N   0  0  0  0  0  0  0  0  0  0  0  0
    2.5980    2.6150   21.8190 C   0  0  0  0  0  0  0  0  0  0  0  0
    3.1750    2.4130   20.6050 N   0  0  0  0  0  0  0  0  0  0  0  0
    3.1380    2.6530   22.7550 H   0  0  0  0  0  0  0  0  0  0  0  0
    4.5750    2.2060   20.3520 C   0  0  0  0  0  0  0  0  0  0  0  0
    4.7210    1.2380   19.8650 H   0  0  0  0  0  0  0  0  0  0  0  0
    5.1060    2.2220   21.3070 H   0  0  0  0  0  0  0  0  0  0  0  0
    4.9350    3.0030   19.6980 H   0  0  0  0  0  0  0  0  0  0  0  0
  1  7  1  0  0  0  0
  2  1  2  0  0  0  0
  2  3  1  0  0  0  0
  3  5  2  0  0  0  0
  4  3  1  0  0  0  0
  4 30  1  0  0  0  0
  4  9  1  0  0  0  0
  5  6  1  0  0  0  0
  6 11  1  0  0  0  0
  7 10  1  0  0  0  0
  7  6  2  0  0  0  0
  8  2  1  0  0  0  0
 11 12  1  0  0  0  0
 12 13  1  0  0  0  0
 12 21  1  0  0  0  0
 12 22  1  0  0  0  0
 13 18  1  0  0  0  0
 14 13  2  0  0  0  0
 15 14  1  0  0  0  0
 15 16  2  0  0  0  0
 16 17  1  0  0  0  0
 17 18  2  0  0  0  0
 17 25  1  0  0  0  0
 18 26  1  0  0  0  0
 19 11  1  0  0  0  0
 19 14  1  0  0  0  0
 20 19  2  0  0  0  0
 23 15  1  0  0  0  0
 24 16  1  0  0  0  0
 26 28  1  0  0  0  0
 26 27  1  0  0  0  0
 29 26  1  0  0  0  0
 30 34  1  0  0  0  0
 31 36  1  0  0  0  0
 31 30  1  0  0  0  0
 31 35  1  0  0  0  0
 32 33  1  0  0  0  0
 32 31  1  0  0  0  0
 33 39  1  0  0  0  0
 33 30  1  0  0  0  0
 37 32  1  0  0  0  0
 38 32  1  0  0  0  0
 40 33  1  0  0  0  0
 41 42  1  6  0  0  0
 41 43  1  0  0  0  0
 41  1  1  0  0  0  0
 41 47  1  0  0  0  0
 43 44  1  0  0  0  0
 43 46  1  0  0  0  0
 45 43  1  0  0  0  0
 47 50  1  0  0  0  0
 48 47  1  0  0  0  0
 49 47  1  0  0  0  0
 50 51  2  0  0  0  0
 50 54  1  0  0  0  0
 51 52  1  0  0  0  0
 52 53  2  0  0  0  0
 53 55  1  0  0  0  0
 54 53  1  0  0  0  0
 56 54  1  0  0  0  0
 56 58  1  0  0  0  0
 57 56  1  0  0  0  0
 59 56  1  0  0  0  0
M  END
>  <MODEL>
23

>  <REMARK>
 VINA RESULT:    -5.662      1.511      4.769
 INTER + INTRA:          -9.186
 INTER:                  -7.940
 INTRA:                  -1.246
 UNBOUND:                -1.207
  Name = 
  8 active torsions:
  status: ('A' for Active; 'I' for Inactive)
    1  A    between atoms: C_1  and  C_2
    2  A    between atoms: C_2  and  C_3
    3  A    between atoms: C_2  and  C_10
    4  A    between atoms: C_3  and  C_4
    5  A    between atoms: N_8  and  C_9
    6  A    between atoms: N_13  and  C_14
    7  A    between atoms: C_19  and  N_21
    8  A    between atoms: C_28  and  C_29
                            x       y       z     vdW  Elec       q    Type
                         _______ _______ _______ _____ _____    ______ ____

>  <TORSDO>
F 8

$$$$
=
 OpenBabel07192307433D

 59 63  0  0  1  0  0  0  0  0999 V2000
   -1.2580   11.6940   19.6670 C   0  0  0  0  0  0  0  0  0  0  0  0
   -0.4600   12.8270   19.8340 C   0  0  0  0  0  0  0  0  0  0  0  0
    0.9180   12.7270   19.6780 C   0  0  0  0  0  0  0  0  0  0  0  0
    1.7040   13.8880   19.8780 N   0  0  0  0  0  0  0  0  0  0  0  0
    1.5200   11.5560   19.3990 N   0  0  0  0  0  0  0  0  0  0  0  0
    0.7630   10.4450   19.2430 C   0  0  0  0  0  0  0  0  0  0  0  0
   -0.6210   10.4840   19.3670 C   0  0  0  0  0  0  0  0  0  0  0  0
   -0.8990   13.7840   20.0950 H   0  0  0  0  0  0  0  0  0  0  0  0
    1.2950   14.6380   19.3280 H   0  0  0  0  0  0  0  0  0  0  0  0
   -1.2210    9.5880   19.2420 H   0  0  0  0  0  0  0  0  0  0  0  0
    1.4600    9.2560   18.9570 N   0  0  0  0  0  0  0  0  0  0  0  0
    1.2890    8.1000   19.8210 C   0  0  0  0  0  0  0  0  0  0  0  0
    2.1760    7.0750   19.1860 C   0  0  0  0  0  0  0  0  0  0  0  0
    2.7830    7.6200   18.0590 C   0  0  0  0  0  0  0  0  0  0  0  0
    3.6600    6.9040   17.2650 C   0  0  0  0  0  0  0  0  0  0  0  0
    3.9280    5.5850   17.6310 C   0  0  0  0  0  0  0  0  0  0  0  0
    3.3210    5.0200   18.7680 C   0  0  0  0  0  0  0  0  0  0  0  0
    2.4300    5.7610   19.5680 C   0  0  0  0  0  0  0  0  0  0  0  0
    2.3290    9.0090   17.9040 C   0  0  0  0  0  0  0  0  0  0  0  0
    2.7030    9.7200   16.9920 O   0  0  0  0  0  0  0  0  0  0  0  0
    1.6290    8.3400   20.8340 H   0  0  0  0  0  0  0  0  0  0  0  0
    0.2430    7.7760   19.8080 H   0  0  0  0  0  0  0  0  0  0  0  0
    4.1180    7.3570   16.3910 H   0  0  0  0  0  0  0  0  0  0  0  0
    4.6140    4.9880   17.0320 H   0  0  0  0  0  0  0  0  0  0  0  0
    3.5540    3.9860   19.0250 H   0  0  0  0  0  0  0  0  0  0  0  0
    1.7750    5.1650   20.7860 C   0  0  0  0  0  0  0  0  0  0  0  0
    1.7430    6.0330   21.8320 F   0  0  0  0  0  0  0  0  0  0  0  0
    2.3940    4.0430   21.2470 F   0  0  0  0  0  0  0  0  0  0  0  0
    0.4810    4.8110   20.5540 F   0  0  0  0  0  0  0  0  0  0  0  0
    3.1380   13.8580   19.7350 C   0  0  0  0  0  0  0  0  0  0  0  0
    3.5620   13.7080   18.2550 C   0  0  0  0  0  0  0  0  0  0  0  0
    3.6310   15.2460   18.1680 C   0  0  0  0  0  0  0  0  0  0  0  0
    3.7770   15.2660   19.7030 C   0  0  0  0  0  0  0  0  0  0  0  0
    3.6030   13.1360   20.4130 H   0  0  0  0  0  0  0  0  0  0  0  0
    4.5370   13.2200   18.1320 H   0  0  0  0  0  0  0  0  0  0  0  0
    2.8480   13.2290   17.5790 H   0  0  0  0  0  0  0  0  0  0  0  0
    2.7060   15.7080   17.8060 H   0  0  0  0  0  0  0  0  0  0  0  0
    4.4750   15.6520   17.6050 H   0  0  0  0  0  0  0  0  0  0  0  0
    4.8200   15.2740   20.0420 H   0  0  0  0  0  0  0  0  0  0  0  0
    3.2440   16.0750   20.2110 H   0  0  0  0  0  0  0  0  0  0  0  0
   -2.7710   11.7320   19.8430 C   0  0  2  0  0  0  0  0  0  0  0  0
   -3.0560   10.9020   20.5070 H   0  0  0  0  0  0  0  0  0  0  0  0
   -3.4910   11.4950   18.5070 C   0  0  0  0  0  0  0  0  0  0  0  0
   -3.4290   10.4490   18.1880 H   0  0  0  0  0  0  0  0  0  0  0  0
   -3.0590   12.1060   17.7080 H   0  0  0  0  0  0  0  0  0  0  0  0
   -4.5520   11.7600   18.5830 H   0  0  0  0  0  0  0  0  0  0  0  0
   -3.1820   13.0630   20.5070 C   0  0  0  0  0  0  0  0  0  0  0  0
   -3.8980   13.5920   19.8660 H   0  0  0  0  0  0  0  0  0  0  0  0
   -2.3000   13.7120   20.5940 H   0  0  0  0  0  0  0  0  0  0  0  0
   -3.7650   12.9080   21.8720 C   0  0  0  0  0  0  0  0  0  0  0  0
   -5.0360   12.7800   22.1960 N   0  0  0  0  0  0  0  0  0  0  0  0
   -5.1240   12.6600   23.5630 N   0  0  0  0  0  0  0  0  0  0  0  0
   -3.9050   12.7020   24.0440 C   0  0  0  0  0  0  0  0  0  0  0  0
   -3.0210   12.8530   23.0230 N   0  0  0  0  0  0  0  0  0  0  0  0
   -3.6300   12.6300   25.0870 H   0  0  0  0  0  0  0  0  0  0  0  0
   -1.5900   12.9310   23.1410 C   0  0  0  0  0  0  0  0  0  0  0  0
   -1.2100   12.0190   23.6080 H   0  0  0  0  0  0  0  0  0  0  0  0
   -1.3390   13.7950   23.7610 H   0  0  0  0  0  0  0  0  0  0  0  0
   -1.1610   13.0380   22.1430 H   0  0  0  0  0  0  0  0  0  0  0  0
  1  2  1  0  0  0  0
  1 41  1  0  0  0  0
  2  8  1  0  0  0  0
  3  2  2  0  0  0  0
  3  4  1  0  0  0  0
  5  3  1  0  0  0  0
  6  7  1  0  0  0  0
  6  5  2  0  0  0  0
  7  1  2  0  0  0  0
  9  4  1  0  0  0  0
 10  7  1  0  0  0  0
 11  6  1  0  0  0  0
 11 12  1  0  0  0  0
 12 21  1  0  0  0  0
 13 18  1  0  0  0  0
 13 12  1  0  0  0  0
 14 13  2  0  0  0  0
 15 16  2  0  0  0  0
 15 14  1  0  0  0  0
 16 17  1  0  0  0  0
 17 25  1  0  0  0  0
 17 18  2  0  0  0  0
 18 26  1  0  0  0  0
 19 14  1  0  0  0  0
 19 11  1  0  0  0  0
 20 19  2  0  0  0  0
 22 12  1  0  0  0  0
 23 15  1  0  0  0  0
 24 16  1  0  0  0  0
 26 28  1  0  0  0  0
 26 27  1  0  0  0  0
 29 26  1  0  0  0  0
 30  4  1  0  0  0  0
 30 34  1  0  0  0  0
 31 30  1  0  0  0  0
 32 31  1  0  0  0  0
 32 33  1  0  0  0  0
 33 30  1  0  0  0  0
 33 39  1  0  0  0  0
 33 40  1  0  0  0  0
 35 31  1  0  0  0  0
 36 31  1  0  0  0  0
 37 32  1  0  0  0  0
 38 32  1  0  0  0  0
 41 47  1  0  0  0  0
 41 42  1  1  0  0  0
 43 46  1  0  0  0  0
 43 41  1  0  0  0  0
 44 43  1  0  0  0  0
 45 43  1  0  0  0  0
 47 49  1  0  0  0  0
 47 50  1  0  0  0  0
 48 47  1  0  0  0  0
 50 51  2  0  0  0  0
 50 54  1  0  0  0  0
 51 52  1  0  0  0  0
 52 53  2  0  0  0  0
 53 55  1  0  0  0  0
 54 56  1  0  0  0  0
 54 53  1  0  0  0  0
 56 57  1  0  0  0  0
 56 58  1  0  0  0  0
 59 56  1  0  0  0  0
M  END
>  <MODEL>
24

>  <REMARK>
 VINA RESULT:    -5.647      3.849      9.163
 INTER + INTRA:          -9.165
 INTER:                  -8.295
 INTRA:                  -0.870
 UNBOUND:                -1.207
  Name = 
  8 active torsions:
  status: ('A' for Active; 'I' for Inactive)
    1  A    between atoms: C_1  and  C_2
    2  A    between atoms: C_2  and  C_3
    3  A    between atoms: C_2  and  C_10
    4  A    between atoms: C_3  and  C_4
    5  A    between atoms: N_8  and  C_9
    6  A    between atoms: N_13  and  C_14
    7  A    between atoms: C_19  and  N_21
    8  A    between atoms: C_28  and  C_29
                            x       y       z     vdW  Elec       q    Type
                         _______ _______ _______ _____ _____    ______ ____

>  <TORSDO>
F 8

$$$$
=
 OpenBabel07192307433D

 59 63  0  0  1  0  0  0  0  0999 V2000
    1.9890    4.6560   20.6210 C   0  0  0  0  0  0  0  0  0  0  0  0
    3.2000    4.6450   19.9270 C   0  0  0  0  0  0  0  0  0  0  0  0
    3.7090    5.8330   19.4140 C   0  0  0  0  0  0  0  0  0  0  0  0
    4.9260    5.7870   18.6920 N   0  0  0  0  0  0  0  0  0  0  0  0
    3.0520    7.0010   19.5370 N   0  0  0  0  0  0  0  0  0  0  0  0
    1.8720    7.0290   20.1990 C   0  0  0  0  0  0  0  0  0  0  0  0
    1.3200    5.8790   20.7520 C   0  0  0  0  0  0  0  0  0  0  0  0
    3.7450    3.7200   19.7720 H   0  0  0  0  0  0  0  0  0  0  0  0
    5.6010    5.2760   19.2540 H   0  0  0  0  0  0  0  0  0  0  0  0
    0.3730    5.9090   21.2800 H   0  0  0  0  0  0  0  0  0  0  0  0
    1.2400    8.2840   20.2860 N   0  0  0  0  0  0  0  0  0  0  0  0
    0.3430    8.7080   19.2240 C   0  0  0  0  0  0  0  0  0  0  0  0
   -0.1070   10.0580   19.6880 C   0  0  0  0  0  0  0  0  0  0  0  0
    0.4890   10.3530   20.9110 C   0  0  0  0  0  0  0  0  0  0  0  0
    0.2600   11.5370   21.5870 C   0  0  0  0  0  0  0  0  0  0  0  0
   -0.6090   12.4550   20.9970 C   0  0  0  0  0  0  0  0  0  0  0  0
   -1.2200   12.1720   19.7620 C   0  0  0  0  0  0  0  0  0  0  0  0
   -0.9770   10.9620   19.0840 C   0  0  0  0  0  0  0  0  0  0  0  0
    1.3470    9.2240   21.3000 C   0  0  0  0  0  0  0  0  0  0  0  0
    1.9850    9.2160   22.3340 O   0  0  0  0  0  0  0  0  0  0  0  0
    0.8930    8.7810   18.2810 H   0  0  0  0  0  0  0  0  0  0  0  0
   -0.5030    8.0160   19.1510 H   0  0  0  0  0  0  0  0  0  0  0  0
    0.7400   11.7370   22.5390 H   0  0  0  0  0  0  0  0  0  0  0  0
   -0.8150   13.4000   21.4980 H   0  0  0  0  0  0  0  0  0  0  0  0
   -1.8940   12.9130   19.3300 H   0  0  0  0  0  0  0  0  0  0  0  0
   -1.6270   10.6490   17.7620 C   0  0  0  0  0  0  0  0  0  0  0  0
   -2.8090    9.9910   17.9110 F   0  0  0  0  0  0  0  0  0  0  0  0
   -0.8640    9.8700   16.9470 F   0  0  0  0  0  0  0  0  0  0  0  0
   -1.9120   11.7730   17.0490 F   0  0  0  0  0  0  0  0  0  0  0  0
    5.5120    6.9790   18.1310 C   0  0  0  0  0  0  0  0  0  0  0  0
    7.0510    6.8640   18.0230 C   0  0  0  0  0  0  0  0  0  0  0  0
    6.8630    6.3350   16.5870 C   0  0  0  0  0  0  0  0  0  0  0  0
    5.4750    7.0060   16.5840 C   0  0  0  0  0  0  0  0  0  0  0  0
    5.1610    7.8850   18.6340 H   0  0  0  0  0  0  0  0  0  0  0  0
    7.5610    7.8340   18.0670 H   0  0  0  0  0  0  0  0  0  0  0  0
    7.5480    6.1800   18.7160 H   0  0  0  0  0  0  0  0  0  0  0  0
    6.8250    5.2410   16.5220 H   0  0  0  0  0  0  0  0  0  0  0  0
    7.5740    6.7100   15.8460 H   0  0  0  0  0  0  0  0  0  0  0  0
    5.4820    8.0220   16.1710 H   0  0  0  0  0  0  0  0  0  0  0  0
    4.6840    6.4380   16.0870 H   0  0  0  0  0  0  0  0  0  0  0  0
    1.3670    3.3860   21.1910 C   0  0  2  0  0  0  0  0  0  0  0  0
    0.5100    3.6790   21.8150 H   0  0  0  0  0  0  0  0  0  0  0  0
    2.3530    2.6520   22.1130 C   0  0  0  0  0  0  0  0  0  0  0  0
    2.3460    3.0620   23.1290 H   0  0  0  0  0  0  0  0  0  0  0  0
    3.3790    2.7270   21.7380 H   0  0  0  0  0  0  0  0  0  0  0  0
    2.1060    1.5870   22.1790 H   0  0  0  0  0  0  0  0  0  0  0  0
    0.8620    2.4950   20.0380 C   0  0  0  0  0  0  0  0  0  0  0  0
   -0.0320    2.9440   19.5850 H   0  0  0  0  0  0  0  0  0  0  0  0
    0.5530    1.5200   20.4410 H   0  0  0  0  0  0  0  0  0  0  0  0
    1.8780    2.2430   18.9740 C   0  0  0  0  0  0  0  0  0  0  0  0
    2.8390    1.3420   18.9740 N   0  0  0  0  0  0  0  0  0  0  0  0
    3.5370    1.4540   17.7950 N   0  0  0  0  0  0  0  0  0  0  0  0
    2.9800    2.4110   17.0930 C   0  0  0  0  0  0  0  0  0  0  0  0
    1.9350    2.9320   17.7890 N   0  0  0  0  0  0  0  0  0  0  0  0
    3.2910    2.7460   16.1140 H   0  0  0  0  0  0  0  0  0  0  0  0
    1.0660    3.9910   17.3530 C   0  0  0  0  0  0  0  0  0  0  0  0
    1.6290    4.9260   17.2930 H   0  0  0  0  0  0  0  0  0  0  0  0
    0.2550    4.0950   18.0770 H   0  0  0  0  0  0  0  0  0  0  0  0
    0.6710    3.7380   16.3670 H   0  0  0  0  0  0  0  0  0  0  0  0
  1  7  1  0  0  0  0
  1 41  1  0  0  0  0
  2  1  2  0  0  0  0
  3  5  2  0  0  0  0
  3  2  1  0  0  0  0
  4  9  1  0  0  0  0
  4  3  1  0  0  0  0
  5  6  1  0  0  0  0
  6 11  1  0  0  0  0
  6  7  2  0  0  0  0
  7 10  1  0  0  0  0
  8  2  1  0  0  0  0
 11 19  1  0  0  0  0
 12 13  1  0  0  0  0
 12 11  1  0  0  0  0
 13 14  1  0  0  0  0
 14 19  1  0  0  0  0
 14 15  2  0  0  0  0
 15 23  1  0  0  0  0
 16 24  1  0  0  0  0
 16 15  1  0  0  0  0
 17 16  2  0  0  0  0
 18 13  2  0  0  0  0
 18 17  1  0  0  0  0
 19 20  2  0  0  0  0
 21 12  1  0  0  0  0
 22 12  1  0  0  0  0
 25 17  1  0  0  0  0
 26 27  1  0  0  0  0
 26 18  1  0  0  0  0
 28 26  1  0  0  0  0
 29 26  1  0  0  0  0
 30 34  1  0  0  0  0
 30  4  1  0  0  0  0
 31 35  1  0  0  0  0
 31 30  1  0  0  0  0
 31 36  1  0  0  0  0
 32 31  1  0  0  0  0
 33 32  1  0  0  0  0
 33 30  1  0  0  0  0
 37 32  1  0  0  0  0
 38 32  1  0  0  0  0
 39 33  1  0  0  0  0
 40 33  1  0  0  0  0
 41 42  1  1  0  0  0
 41 43  1  0  0  0  0
 43 46  1  0  0  0  0
 43 44  1  0  0  0  0
 45 43  1  0  0  0  0
 47 49  1  0  0  0  0
 47 41  1  0  0  0  0
 48 47  1  0  0  0  0
 50 51  2  0  0  0  0
 50 47  1  0  0  0  0
 52 51  1  0  0  0  0
 53 54  1  0  0  0  0
 53 52  2  0  0  0  0
 54 50  1  0  0  0  0
 55 53  1  0  0  0  0
 56 54  1  0  0  0  0
 56 58  1  0  0  0  0
 57 56  1  0  0  0  0
 59 56  1  0  0  0  0
M  END
>  <MODEL>
25

>  <REMARK>
 VINA RESULT:    -5.602      2.648      5.486
 INTER + INTRA:          -9.101
 INTER:                  -9.122
 INTRA:                   0.022
 UNBOUND:                -1.207
  Name = 
  8 active torsions:
  status: ('A' for Active; 'I' for Inactive)
    1  A    between atoms: C_1  and  C_2
    2  A    between atoms: C_2  and  C_3
    3  A    between atoms: C_2  and  C_10
    4  A    between atoms: C_3  and  C_4
    5  A    between atoms: N_8  and  C_9
    6  A    between atoms: N_13  and  C_14
    7  A    between atoms: C_19  and  N_21
    8  A    between atoms: C_28  and  C_29
                            x       y       z     vdW  Elec       q    Type
                         _______ _______ _______ _____ _____    ______ ____

>  <TORSDO>
F 8

$$$$
