=
 OpenBabel07192307433D

 54 57  0  0  1  0  0  0  0  0999 V2000
    3.7220    4.5580   19.3720 N   0  0  0  0  0  0  0  0  0  0  0  0
    2.4480    4.8350   19.8570 C   0  0  0  0  0  0  0  0  0  0  0  0
    1.8190    4.1900   20.6820 O   0  0  0  0  0  0  0  0  0  0  0  0
    1.9790    6.1400   19.2620 C   0  0  0  0  0  0  0  0  0  0  0  0
    2.9840    6.3980   18.1380 C   0  0  2  0  0  0  0  0  0  0  0  0
    4.2500    5.6860   18.6270 C   0  0  2  0  0  0  0  0  0  0  0  0
    2.0010    6.8990   20.0490 H   0  0  0  0  0  0  0  0  0  0  0  0
    0.9630    6.0380   18.8730 H   0  0  0  0  0  0  0  0  0  0  0  0
    2.5960    5.8930   17.2410 H   0  0  0  0  0  0  0  0  0  0  0  0
    4.7930    6.3030   19.3540 H   0  0  0  0  0  0  0  0  0  0  0  0
    5.1700    5.2680   17.5310 C   0  0  0  0  0  0  0  0  0  0  0  0
    6.5840    5.1980   17.5360 C   0  0  0  0  0  0  0  0  0  0  0  0
    7.0850    4.7520   16.3820 N   0  0  0  0  0  0  0  0  0  0  0  0
    5.9950    4.5290   15.6280 N   0  0  0  0  0  0  0  0  0  0  0  0
    4.8270    4.8250   16.2660 C   0  0  0  0  0  0  0  0  0  0  0  0
    7.2670    5.4640   18.3360 H   0  0  0  0  0  0  0  0  0  0  0  0
    3.8670    4.6900   15.7900 H   0  0  0  0  0  0  0  0  0  0  0  0
    6.1510    4.0130   14.2910 C   0  0  0  0  0  0  0  0  0  0  0  0
    6.8450    3.1700   14.3240 H   0  0  0  0  0  0  0  0  0  0  0  0
    6.5500    4.7980   13.6430 H   0  0  0  0  0  0  0  0  0  0  0  0
    5.1700    3.6920   13.9300 H   0  0  0  0  0  0  0  0  0  0  0  0
    4.5600    3.5190   19.9670 C   0  0  0  0  0  0  0  0  0  0  0  0
    4.4560    3.5840   21.0550 H   0  0  0  0  0  0  0  0  0  0  0  0
    5.6080    3.7390   19.7360 H   0  0  0  0  0  0  0  0  0  0  0  0
    4.2020    2.0960   19.5110 C   0  0  0  0  0  0  0  0  0  0  0  0
    3.3850    1.6970   20.1260 H   0  0  0  0  0  0  0  0  0  0  0  0
    5.0550    1.4310   19.6640 H   0  0  0  0  0  0  0  0  0  0  0  0
    3.8570    2.0050   18.1270 O   0  0  0  0  0  0  0  0  0  0  0  0
    2.4650    1.8280   17.9060 C   0  0  0  0  0  0  0  0  0  0  0  0
    1.9530    2.7960   17.9250 H   0  0  0  0  0  0  0  0  0  0  0  0
    2.2680    1.3240   16.9580 H   0  0  0  0  0  0  0  0  0  0  0  0
    2.0670    1.2110   18.7150 H   0  0  0  0  0  0  0  0  0  0  0  0
    3.1850    7.8730   17.7730 C   0  0  0  0  0  0  0  0  0  0  0  0
    3.8490    7.9240   16.9020 H   0  0  0  0  0  0  0  0  0  0  0  0
    3.7020    8.3620   18.6070 H   0  0  0  0  0  0  0  0  0  0  0  0
    1.9270    8.5750   17.4890 N   0  0  0  0  0  0  0  0  0  0  0  0
    1.7470    8.5590   16.4850 H   0  0  0  0  0  0  0  0  0  0  0  0
    1.9890    9.9860   17.9040 C   0  0  0  0  0  0  0  0  0  0  0  0
    3.0390   10.2460   18.0770 H   0  0  0  0  0  0  0  0  0  0  0  0
    1.6320   10.6510   17.1090 H   0  0  0  0  0  0  0  0  0  0  0  0
    1.2200   10.2050   19.1670 C   0  0  0  0  0  0  0  0  0  0  0  0
    0.5030   11.3180   19.5600 C   0  0  0  0  0  0  0  0  0  0  0  0
    0.0030   11.0230   20.8030 N   0  0  0  0  0  0  0  0  0  0  0  0
   -0.7860   11.7970   21.6500 C   0  0  0  0  0  0  0  0  0  0  0  0
   -1.1570   11.2920   22.8400 C   0  0  0  0  0  0  0  0  0  0  0  0
   -0.7230    9.9500   23.2010 C   0  0  0  0  0  0  0  0  0  0  0  0
    0.0400    9.2080   22.3740 C   0  0  0  0  0  0  0  0  0  0  0  0
    0.4390    9.7390   21.1140 C   0  0  0  0  0  0  0  0  0  0  0  0
    1.1700    9.2320   20.1450 N   0  0  0  0  0  0  0  0  0  0  0  0
    0.3150   12.2660   19.0760 H   0  0  0  0  0  0  0  0  0  0  0  0
   -1.0680   12.7850   21.3090 H   0  0  0  0  0  0  0  0  0  0  0  0
   -1.7710   11.8520   23.5370 H   0  0  0  0  0  0  0  0  0  0  0  0
   -1.0350    9.5590   24.1650 H   0  0  0  0  0  0  0  0  0  0  0  0
    0.3640    8.2080   22.6390 H   0  0  0  0  0  0  0  0  0  0  0  0
  1  2  1  0  0  0  0
  1 22  1  0  0  0  0
  2  3  2  0  0  0  0
  4  2  1  0  0  0  0
  4  7  1  0  0  0  0
  5  9  1  6  0  0  0
  5  6  1  0  0  0  0
  5  4  1  0  0  0  0
  6 10  1  1  0  0  0
  6  1  1  0  0  0  0
  8  4  1  0  0  0  0
 11 12  1  0  0  0  0
 11  6  1  0  0  0  0
 12 16  1  0  0  0  0
 13 12  2  0  0  0  0
 14 15  1  0  0  0  0
 14 13  1  0  0  0  0
 15 11  2  0  0  0  0
 17 15  1  0  0  0  0
 18 19  1  0  0  0  0
 18 14  1  0  0  0  0
 20 18  1  0  0  0  0
 21 18  1  0  0  0  0
 22 23  1  0  0  0  0
 24 22  1  0  0  0  0
 25 27  1  0  0  0  0
 25 22  1  0  0  0  0
 25 26  1  0  0  0  0
 28 25  1  0  0  0  0
 29 30  1  0  0  0  0
 29 28  1  0  0  0  0
 29 32  1  0  0  0  0
 31 29  1  0  0  0  0
 33  5  1  0  0  0  0
 33 35  1  0  0  0  0
 34 33  1  0  0  0  0
 36 33  1  0  0  0  0
 36 38  1  0  0  0  0
 37 36  1  0  0  0  0
 38 39  1  0  0  0  0
 38 41  1  0  0  0  0
 40 38  1  0  0  0  0
 41 42  2  0  0  0  0
 41 49  1  0  0  0  0
 42 43  1  0  0  0  0
 43 48  1  0  0  0  0
 43 44  1  0  0  0  0
 44 45  2  0  0  0  0
 45 46  1  0  0  0  0
 45 52  1  0  0  0  0
 46 53  1  0  0  0  0
 47 54  1  0  0  0  0
 47 46  2  0  0  0  0
 48 47  1  0  0  0  0
 49 48  2  0  0  0  0
 50 42  1  0  0  0  0
 51 44  1  0  0  0  0
M  END
>  <MODEL>
1

>  <REMARK>
 VINA RESULT:    -6.777      0.000      0.000
 INTER + INTRA:         -11.294
 INTER:                 -10.449
 INTRA:                  -0.845
 UNBOUND:                -0.951
  Name = 
  10 active torsions:
  status: ('A' for Active; 'I' for Inactive)
    1  A    between atoms: C_1  and  O_2
    2  A    between atoms: O_2  and  C_3
    3  A    between atoms: C_3  and  C_4
    4  A    between atoms: C_4  and  N_5
    5  A    between atoms: C_9  and  C_10
    6  A    between atoms: C_10  and  N_11
    7  A    between atoms: N_11  and  C_12
    8  A    between atoms: C_12  and  C_13
    9  A    between atoms: C_22  and  C_23
   10  A    between atoms: N_26  and  C_27
                            x       y       z     vdW  Elec       q    Type
                         _______ _______ _______ _____ _____    ______ ____

>  <TORSDO>
F 10

$$$$
=
 OpenBabel07192307433D

 54 57  0  0  1  0  0  0  0  0999 V2000
    3.0860    3.4100   18.0160 N   0  0  0  0  0  0  0  0  0  0  0  0
    1.7440    3.6740   18.2660 C   0  0  0  0  0  0  0  0  0  0  0  0
    0.8650    2.8580   18.5000 O   0  0  0  0  0  0  0  0  0  0  0  0
    1.5440    5.1690   18.2970 C   0  0  0  0  0  0  0  0  0  0  0  0
    2.8480    5.7130   17.7090 C   0  0  2  0  0  0  0  0  0  0  0  0
    3.8720    4.6290   18.0630 C   0  0  2  0  0  0  0  0  0  0  0  0
    1.3760    5.4680   19.3350 H   0  0  0  0  0  0  0  0  0  0  0  0
    0.6830    5.4510   17.6860 H   0  0  0  0  0  0  0  0  0  0  0  0
    2.7120    5.7550   16.6180 H   0  0  0  0  0  0  0  0  0  0  0  0
    4.2110    4.7320   19.1020 H   0  0  0  0  0  0  0  0  0  0  0  0
    5.0490    4.5870   17.1480 C   0  0  0  0  0  0  0  0  0  0  0  0
    6.4260    4.5360   17.4740 C   0  0  0  0  0  0  0  0  0  0  0  0
    7.2110    4.4810   16.3960 N   0  0  0  0  0  0  0  0  0  0  0  0
    6.3430    4.4950   15.3700 N   0  0  0  0  0  0  0  0  0  0  0  0
    5.0400    4.5620   15.7650 C   0  0  0  0  0  0  0  0  0  0  0  0
    6.8840    4.5440   18.4570 H   0  0  0  0  0  0  0  0  0  0  0  0
    4.2280    4.5730   15.0530 H   0  0  0  0  0  0  0  0  0  0  0  0
    6.8410    4.4280   14.0190 C   0  0  0  0  0  0  0  0  0  0  0  0
    7.9320    4.3920   14.0530 H   0  0  0  0  0  0  0  0  0  0  0  0
    6.5150    5.3140   13.4670 H   0  0  0  0  0  0  0  0  0  0  0  0
    6.4390    3.5270   13.5490 H   0  0  0  0  0  0  0  0  0  0  0  0
    3.6530    2.0760   18.2000 C   0  0  0  0  0  0  0  0  0  0  0  0
    4.5150    1.9800   17.5320 H   0  0  0  0  0  0  0  0  0  0  0  0
    2.9170    1.3340   17.8740 H   0  0  0  0  0  0  0  0  0  0  0  0
    4.0980    1.7850   19.6420 C   0  0  0  0  0  0  0  0  0  0  0  0
    5.1760    1.5860   19.6710 H   0  0  0  0  0  0  0  0  0  0  0  0
    3.6080    0.8790   20.0060 H   0  0  0  0  0  0  0  0  0  0  0  0
    3.7700    2.8250   20.5660 O   0  0  0  0  0  0  0  0  0  0  0  0
    2.7480    2.4600   21.4820 C   0  0  0  0  0  0  0  0  0  0  0  0
    1.7650    2.7280   21.0800 H   0  0  0  0  0  0  0  0  0  0  0  0
    2.7760    1.3940   21.7130 H   0  0  0  0  0  0  0  0  0  0  0  0
    2.9050    3.0180   22.4090 H   0  0  0  0  0  0  0  0  0  0  0  0
    3.2300    7.1240   18.1710 C   0  0  0  0  0  0  0  0  0  0  0  0
    3.3460    7.7560   17.2830 H   0  0  0  0  0  0  0  0  0  0  0  0
    4.2080    7.0670   18.6620 H   0  0  0  0  0  0  0  0  0  0  0  0
    2.2490    7.7170   19.0880 N   0  0  0  0  0  0  0  0  0  0  0  0
    1.5040    7.0450   19.2720 H   0  0  0  0  0  0  0  0  0  0  0  0
    1.6250    8.9190   18.5100 C   0  0  0  0  0  0  0  0  0  0  0  0
    2.4240    9.5950   18.1830 H   0  0  0  0  0  0  0  0  0  0  0  0
    1.0410    8.6740   17.6160 H   0  0  0  0  0  0  0  0  0  0  0  0
    0.7800    9.6220   19.5240 C   0  0  0  0  0  0  0  0  0  0  0  0
   -0.0080   10.7450   19.3630 C   0  0  0  0  0  0  0  0  0  0  0  0
   -0.5590   10.9950   20.5940 N   0  0  0  0  0  0  0  0  0  0  0  0
   -1.4270   12.0100   20.9880 C   0  0  0  0  0  0  0  0  0  0  0  0
   -1.8390   12.0570   22.2680 C   0  0  0  0  0  0  0  0  0  0  0  0
   -1.3640   11.0420   23.1980 C   0  0  0  0  0  0  0  0  0  0  0  0
   -0.5240   10.0630   22.8060 C   0  0  0  0  0  0  0  0  0  0  0  0
   -0.0830   10.0110   21.4530 C   0  0  0  0  0  0  0  0  0  0  0  0
    0.7220    9.1770   20.8290 N   0  0  0  0  0  0  0  0  0  0  0  0
   -0.2120   11.3680   18.5050 H   0  0  0  0  0  0  0  0  0  0  0  0
   -1.7360   12.7260   20.2380 H   0  0  0  0  0  0  0  0  0  0  0  0
   -2.5140   12.8260   22.6280 H   0  0  0  0  0  0  0  0  0  0  0  0
   -1.7100   11.0960   24.2260 H   0  0  0  0  0  0  0  0  0  0  0  0
   -0.1700    9.3060   23.4960 H   0  0  0  0  0  0  0  0  0  0  0  0
  1  6  1  0  0  0  0
  1 22  1  0  0  0  0
  1  2  1  0  0  0  0
  2  4  1  0  0  0  0
  2  3  2  0  0  0  0
  4  7  1  0  0  0  0
  5  9  1  6  0  0  0
  5  6  1  0  0  0  0
  5 33  1  0  0  0  0
  5  4  1  0  0  0  0
  6 10  1  1  0  0  0
  8  4  1  0  0  0  0
 11 12  1  0  0  0  0
 11  6  1  0  0  0  0
 12 16  1  0  0  0  0
 13 12  2  0  0  0  0
 14 15  1  0  0  0  0
 14 13  1  0  0  0  0
 15 11  2  0  0  0  0
 17 15  1  0  0  0  0
 18 19  1  0  0  0  0
 18 14  1  0  0  0  0
 20 18  1  0  0  0  0
 21 18  1  0  0  0  0
 22 25  1  0  0  0  0
 23 22  1  0  0  0  0
 24 22  1  0  0  0  0
 25 26  1  0  0  0  0
 25 27  1  0  0  0  0
 25 28  1  0  0  0  0
 28 29  1  0  0  0  0
 29 31  1  0  0  0  0
 29 32  1  0  0  0  0
 30 29  1  0  0  0  0
 33 35  1  0  0  0  0
 33 36  1  0  0  0  0
 34 33  1  0  0  0  0
 36 37  1  0  0  0  0
 38 36  1  0  0  0  0
 38 41  1  0  0  0  0
 39 38  1  0  0  0  0
 40 38  1  0  0  0  0
 41 49  1  0  0  0  0
 42 41  2  0  0  0  0
 42 43  1  0  0  0  0
 43 44  1  0  0  0  0
 43 48  1  0  0  0  0
 44 45  2  0  0  0  0
 45 52  1  0  0  0  0
 45 46  1  0  0  0  0
 46 53  1  0  0  0  0
 47 46  2  0  0  0  0
 47 54  1  0  0  0  0
 48 47  1  0  0  0  0
 49 48  2  0  0  0  0
 50 42  1  0  0  0  0
 51 44  1  0  0  0  0
M  END
>  <MODEL>
2

>  <REMARK>
 VINA RESULT:    -6.763      1.288      1.486
 INTER + INTRA:         -11.273
 INTER:                 -10.633
 INTRA:                  -0.640
 UNBOUND:                -0.951
  Name = 
  10 active torsions:
  status: ('A' for Active; 'I' for Inactive)
    1  A    between atoms: C_1  and  O_2
    2  A    between atoms: O_2  and  C_3
    3  A    between atoms: C_3  and  C_4
    4  A    between atoms: C_4  and  N_5
    5  A    between atoms: C_9  and  C_10
    6  A    between atoms: C_10  and  N_11
    7  A    between atoms: N_11  and  C_12
    8  A    between atoms: C_12  and  C_13
    9  A    between atoms: C_22  and  C_23
   10  A    between atoms: N_26  and  C_27
                            x       y       z     vdW  Elec       q    Type
                         _______ _______ _______ _____ _____    ______ ____

>  <TORSDO>
F 10

$$$$
=
 OpenBabel07192307433D

 54 57  0  0  1  0  0  0  0  0999 V2000
    1.6780    7.8700   19.8970 N   0  0  0  0  0  0  0  0  0  0  0  0
    1.7060    8.9490   19.0210 C   0  0  0  0  0  0  0  0  0  0  0  0
    1.2420   10.0630   19.2120 O   0  0  0  0  0  0  0  0  0  0  0  0
    2.4970    8.5570   17.7980 C   0  0  0  0  0  0  0  0  0  0  0  0
    2.6280    7.0390   17.9320 C   0  0  2  0  0  0  0  0  0  0  0  0
    2.5650    6.8130   19.4470 C   0  0  2  0  0  0  0  0  0  0  0  0
    3.4560    9.0820   17.8310 H   0  0  0  0  0  0  0  0  0  0  0  0
    1.9550    8.8320   16.8890 H   0  0  0  0  0  0  0  0  0  0  0  0
    1.7400    6.5990   17.4530 H   0  0  0  0  0  0  0  0  0  0  0  0
    3.5370    7.0120   19.9150 H   0  0  0  0  0  0  0  0  0  0  0  0
    2.0840    5.4560   19.8360 C   0  0  0  0  0  0  0  0  0  0  0  0
    1.2880    4.5500   19.0960 C   0  0  0  0  0  0  0  0  0  0  0  0
    1.0680    3.4040   19.7450 N   0  0  0  0  0  0  0  0  0  0  0  0
    1.7240    3.5660   20.9050 N   0  0  0  0  0  0  0  0  0  0  0  0
    2.3440    4.7760   21.0120 C   0  0  0  0  0  0  0  0  0  0  0  0
    0.8540    4.6870   18.1110 H   0  0  0  0  0  0  0  0  0  0  0  0
    2.9180    5.0480   21.8860 H   0  0  0  0  0  0  0  0  0  0  0  0
    1.7240    2.4990   21.8750 C   0  0  0  0  0  0  0  0  0  0  0  0
    1.7770    1.5470   21.3420 H   0  0  0  0  0  0  0  0  0  0  0  0
    0.8040    2.5440   22.4650 H   0  0  0  0  0  0  0  0  0  0  0  0
    2.5920    2.6270   22.5260 H   0  0  0  0  0  0  0  0  0  0  0  0
    1.2350    8.0160   21.2820 C   0  0  0  0  0  0  0  0  0  0  0  0
    1.7750    8.8620   21.7210 H   0  0  0  0  0  0  0  0  0  0  0  0
    1.5350    7.1250   21.8430 H   0  0  0  0  0  0  0  0  0  0  0  0
   -0.2760    8.2520   21.4280 C   0  0  0  0  0  0  0  0  0  0  0  0
   -0.8180    7.3030   21.3330 H   0  0  0  0  0  0  0  0  0  0  0  0
   -0.6330    8.8910   20.6160 H   0  0  0  0  0  0  0  0  0  0  0  0
   -0.6420    8.9010   22.6470 O   0  0  0  0  0  0  0  0  0  0  0  0
   -0.3580   10.2930   22.6500 C   0  0  0  0  0  0  0  0  0  0  0  0
    0.3960   10.5240   23.4100 H   0  0  0  0  0  0  0  0  0  0  0  0
   -0.0160   10.6360   21.6730 H   0  0  0  0  0  0  0  0  0  0  0  0
   -1.2770   10.8280   22.9030 H   0  0  0  0  0  0  0  0  0  0  0  0
    3.8580    6.4300   17.2490 C   0  0  0  0  0  0  0  0  0  0  0  0
    4.2120    7.1340   16.4880 H   0  0  0  0  0  0  0  0  0  0  0  0
    3.5400    5.5190   16.7280 H   0  0  0  0  0  0  0  0  0  0  0  0
    4.9420    6.1120   18.1860 N   0  0  0  0  0  0  0  0  0  0  0  0
    5.6850    6.8050   18.0950 H   0  0  0  0  0  0  0  0  0  0  0  0
    5.5320    4.7930   17.9050 C   0  0  0  0  0  0  0  0  0  0  0  0
    6.4030    4.6620   18.5580 H   0  0  0  0  0  0  0  0  0  0  0  0
    4.8350    3.9840   18.1520 H   0  0  0  0  0  0  0  0  0  0  0  0
    5.9760    4.6990   16.4810 C   0  0  0  0  0  0  0  0  0  0  0  0
    7.0080    5.3670   15.8520 C   0  0  0  0  0  0  0  0  0  0  0  0
    6.9890    4.9440   14.5470 N   0  0  0  0  0  0  0  0  0  0  0  0
    7.8120    5.3060   13.4840 C   0  0  0  0  0  0  0  0  0  0  0  0
    7.5990    4.7550   12.2760 C   0  0  0  0  0  0  0  0  0  0  0  0
    6.5150    3.7950   12.1210 C   0  0  0  0  0  0  0  0  0  0  0  0
    5.7240    3.4510   13.1570 C   0  0  0  0  0  0  0  0  0  0  0  0
    5.9440    4.0340   14.4370 C   0  0  0  0  0  0  0  0  0  0  0  0
    5.3240    3.8730   15.5880 N   0  0  0  0  0  0  0  0  0  0  0  0
    7.7290    6.0870   16.2110 H   0  0  0  0  0  0  0  0  0  0  0  0
    8.5970    6.0260   13.6790 H   0  0  0  0  0  0  0  0  0  0  0  0
    8.2100    5.0020   11.4140 H   0  0  0  0  0  0  0  0  0  0  0  0
    6.3610    3.3600   11.1390 H   0  0  0  0  0  0  0  0  0  0  0  0
    4.9170    2.7360   13.0460 H   0  0  0  0  0  0  0  0  0  0  0  0
  1 22  1  0  0  0  0
  2  3  2  0  0  0  0
  2  1  1  0  0  0  0
  4  7  1  0  0  0  0
  4  5  1  0  0  0  0
  4  2  1  0  0  0  0
  5  9  1  6  0  0  0
  5  6  1  0  0  0  0
  6 11  1  0  0  0  0
  6  1  1  0  0  0  0
  6 10  1  1  0  0  0
  8  4  1  0  0  0  0
 11 15  2  0  0  0  0
 12 13  2  0  0  0  0
 12 11  1  0  0  0  0
 13 14  1  0  0  0  0
 14 15  1  0  0  0  0
 14 18  1  0  0  0  0
 15 17  1  0  0  0  0
 16 12  1  0  0  0  0
 18 20  1  0  0  0  0
 18 21  1  0  0  0  0
 19 18  1  0  0  0  0
 22 25  1  0  0  0  0
 22 23  1  0  0  0  0
 22 24  1  0  0  0  0
 25 28  1  0  0  0  0
 26 25  1  0  0  0  0
 27 25  1  0  0  0  0
 28 29  1  0  0  0  0
 29 32  1  0  0  0  0
 29 30  1  0  0  0  0
 31 29  1  0  0  0  0
 33  5  1  0  0  0  0
 33 36  1  0  0  0  0
 34 33  1  0  0  0  0
 35 33  1  0  0  0  0
 37 36  1  0  0  0  0
 38 40  1  0  0  0  0
 38 36  1  0  0  0  0
 38 39  1  0  0  0  0
 41 38  1  0  0  0  0
 42 50  1  0  0  0  0
 42 41  2  0  0  0  0
 43 42  1  0  0  0  0
 44 51  1  0  0  0  0
 44 43  1  0  0  0  0
 45 44  2  0  0  0  0
 46 45  1  0  0  0  0
 46 47  2  0  0  0  0
 47 48  1  0  0  0  0
 48 43  1  0  0  0  0
 48 49  2  0  0  0  0
 49 41  1  0  0  0  0
 52 45  1  0  0  0  0
 53 46  1  0  0  0  0
 54 47  1  0  0  0  0
M  END
>  <MODEL>
3

>  <REMARK>
 VINA RESULT:    -6.702      2.643      8.249
 INTER + INTRA:         -11.179
 INTER:                 -10.550
 INTRA:                  -0.629
 UNBOUND:                -0.951
  Name = 
  10 active torsions:
  status: ('A' for Active; 'I' for Inactive)
    1  A    between atoms: C_1  and  O_2
    2  A    between atoms: O_2  and  C_3
    3  A    between atoms: C_3  and  C_4
    4  A    between atoms: C_4  and  N_5
    5  A    between atoms: C_9  and  C_10
    6  A    between atoms: C_10  and  N_11
    7  A    between atoms: N_11  and  C_12
    8  A    between atoms: C_12  and  C_13
    9  A    between atoms: C_22  and  C_23
   10  A    between atoms: N_26  and  C_27
                            x       y       z     vdW  Elec       q    Type
                         _______ _______ _______ _____ _____    ______ ____

>  <TORSDO>
F 10

$$$$
=
 OpenBabel07192307433D

 54 57  0  0  1  0  0  0  0  0999 V2000
    3.7520    4.7830   19.2140 N   0  0  0  0  0  0  0  0  0  0  0  0
    2.5140    5.0480   19.7890 C   0  0  0  0  0  0  0  0  0  0  0  0
    1.9370    4.3790   20.6330 O   0  0  0  0  0  0  0  0  0  0  0  0
    2.0120    6.3710   19.2660 C   0  0  0  0  0  0  0  0  0  0  0  0
    2.9430    6.6620   18.0880 C   0  0  2  0  0  0  0  0  0  0  0  0
    4.2360    5.9320   18.4720 C   0  0  2  0  0  0  0  0  0  0  0  0
    2.0880    7.1050   20.0730 H   0  0  0  0  0  0  0  0  0  0  0  0
    0.9730    6.2830   18.9410 H   0  0  0  0  0  0  0  0  0  0  0  0
    2.4960    6.1850   17.2020 H   0  0  0  0  0  0  0  0  0  0  0  0
    4.8270    6.5260   19.1800 H   0  0  0  0  0  0  0  0  0  0  0  0
    5.0810    5.5470   17.3050 C   0  0  0  0  0  0  0  0  0  0  0  0
    6.4660    5.7630   17.1020 C   0  0  0  0  0  0  0  0  0  0  0  0
    6.9040    5.2570   15.9470 N   0  0  0  0  0  0  0  0  0  0  0  0
    5.8050    4.7100   15.4020 N   0  0  0  0  0  0  0  0  0  0  0  0
    4.6890    4.8590   16.1710 C   0  0  0  0  0  0  0  0  0  0  0  0
    7.1670    6.2780   17.7490 H   0  0  0  0  0  0  0  0  0  0  0  0
    3.7300    4.4640   15.8680 H   0  0  0  0  0  0  0  0  0  0  0  0
    5.9020    4.0400   14.1290 C   0  0  0  0  0  0  0  0  0  0  0  0
    6.9110    3.6350   14.0280 H   0  0  0  0  0  0  0  0  0  0  0  0
    5.7070    4.7560   13.3260 H   0  0  0  0  0  0  0  0  0  0  0  0
    5.1590    3.2390   14.1050 H   0  0  0  0  0  0  0  0  0  0  0  0
    4.6230    3.7250   19.7210 C   0  0  0  0  0  0  0  0  0  0  0  0
    4.6940    3.8380   20.8080 H   0  0  0  0  0  0  0  0  0  0  0  0
    5.6310    3.8790   19.3220 H   0  0  0  0  0  0  0  0  0  0  0  0
    4.1320    2.3070   19.3930 C   0  0  0  0  0  0  0  0  0  0  0  0
    3.2760    2.0470   20.0290 H   0  0  0  0  0  0  0  0  0  0  0  0
    4.9150    1.5800   19.6210 H   0  0  0  0  0  0  0  0  0  0  0  0
    3.7910    2.1190   18.0180 O   0  0  0  0  0  0  0  0  0  0  0  0
    2.3900    2.0380   17.7930 C   0  0  0  0  0  0  0  0  0  0  0  0
    1.8820    2.8860   18.2650 H   0  0  0  0  0  0  0  0  0  0  0  0
    2.1540    2.0110   16.7280 H   0  0  0  0  0  0  0  0  0  0  0  0
    2.0240    1.1170   18.2520 H   0  0  0  0  0  0  0  0  0  0  0  0
    3.1260    8.1470   17.7550 C   0  0  0  0  0  0  0  0  0  0  0  0
    3.8030    8.2270   16.8970 H   0  0  0  0  0  0  0  0  0  0  0  0
    3.6210    8.6270   18.6070 H   0  0  0  0  0  0  0  0  0  0  0  0
    1.8620    8.8350   17.4660 N   0  0  0  0  0  0  0  0  0  0  0  0
    1.9160    9.2760   16.5470 H   0  0  0  0  0  0  0  0  0  0  0  0
    1.5830    9.8940   18.4490 C   0  0  0  0  0  0  0  0  0  0  0  0
    1.8260    9.5080   19.4450 H   0  0  0  0  0  0  0  0  0  0  0  0
    2.2270   10.7660   18.2880 H   0  0  0  0  0  0  0  0  0  0  0  0
    0.1400   10.2840   18.4190 C   0  0  0  0  0  0  0  0  0  0  0  0
   -0.4980   11.2870   19.1210 C   0  0  0  0  0  0  0  0  0  0  0  0
   -1.8180   11.2200   18.7540 N   0  0  0  0  0  0  0  0  0  0  0  0
   -2.8950   12.0000   19.1670 C   0  0  0  0  0  0  0  0  0  0  0  0
   -4.1170   11.7450   18.6660 C   0  0  0  0  0  0  0  0  0  0  0  0
   -4.2720   10.6610   17.7060 C   0  0  0  0  0  0  0  0  0  0  0  0
   -3.2220    9.9120   17.3120 C   0  0  0  0  0  0  0  0  0  0  0  0
   -1.9270   10.1770   17.8410 C   0  0  0  0  0  0  0  0  0  0  0  0
   -0.7620    9.6030   17.6270 N   0  0  0  0  0  0  0  0  0  0  0  0
   -0.1360   12.0170   19.8300 H   0  0  0  0  0  0  0  0  0  0  0  0
   -2.7000   12.7880   19.8840 H   0  0  0  0  0  0  0  0  0  0  0  0
   -4.9900   12.3210   18.9540 H   0  0  0  0  0  0  0  0  0  0  0  0
   -5.2650   10.4720   17.3110 H   0  0  0  0  0  0  0  0  0  0  0  0
   -3.3330    9.1060   16.5960 H   0  0  0  0  0  0  0  0  0  0  0  0
  1 22  1  0  0  0  0
  1  2  1  0  0  0  0
  2  3  2  0  0  0  0
  4  2  1  0  0  0  0
  4  7  1  0  0  0  0
  5  9  1  6  0  0  0
  5  6  1  0  0  0  0
  5  4  1  0  0  0  0
  6 10  1  1  0  0  0
  6  1  1  0  0  0  0
  8  4  1  0  0  0  0
 11  6  1  0  0  0  0
 12 11  1  0  0  0  0
 12 16  1  0  0  0  0
 13 12  2  0  0  0  0
 14 13  1  0  0  0  0
 14 15  1  0  0  0  0
 15 11  2  0  0  0  0
 17 15  1  0  0  0  0
 18 14  1  0  0  0  0
 19 18  1  0  0  0  0
 20 18  1  0  0  0  0
 21 18  1  0  0  0  0
 22 23  1  0  0  0  0
 24 22  1  0  0  0  0
 25 27  1  0  0  0  0
 25 22  1  0  0  0  0
 25 26  1  0  0  0  0
 28 25  1  0  0  0  0
 29 28  1  0  0  0  0
 29 32  1  0  0  0  0
 29 30  1  0  0  0  0
 31 29  1  0  0  0  0
 33  5  1  0  0  0  0
 33 35  1  0  0  0  0
 34 33  1  0  0  0  0
 36 33  1  0  0  0  0
 36 38  1  0  0  0  0
 37 36  1  0  0  0  0
 38 39  1  0  0  0  0
 40 38  1  0  0  0  0
 41 38  1  0  0  0  0
 41 42  2  0  0  0  0
 42 50  1  0  0  0  0
 43 42  1  0  0  0  0
 43 44  1  0  0  0  0
 44 51  1  0  0  0  0
 45 52  1  0  0  0  0
 45 44  2  0  0  0  0
 46 45  1  0  0  0  0
 47 46  2  0  0  0  0
 47 48  1  0  0  0  0
 48 43  1  0  0  0  0
 49 48  2  0  0  0  0
 49 41  1  0  0  0  0
 53 46  1  0  0  0  0
 54 47  1  0  0  0  0
M  END
>  <MODEL>
4

>  <REMARK>
 VINA RESULT:    -6.642      1.981      2.368
 INTER + INTRA:         -11.088
 INTER:                 -10.274
 INTRA:                  -0.814
 UNBOUND:                -0.951
  Name = 
  10 active torsions:
  status: ('A' for Active; 'I' for Inactive)
    1  A    between atoms: C_1  and  O_2
    2  A    between atoms: O_2  and  C_3
    3  A    between atoms: C_3  and  C_4
    4  A    between atoms: C_4  and  N_5
    5  A    between atoms: C_9  and  C_10
    6  A    between atoms: C_10  and  N_11
    7  A    between atoms: N_11  and  C_12
    8  A    between atoms: C_12  and  C_13
    9  A    between atoms: C_22  and  C_23
   10  A    between atoms: N_26  and  C_27
                            x       y       z     vdW  Elec       q    Type
                         _______ _______ _______ _____ _____    ______ ____

>  <TORSDO>
F 10

$$$$
=
 OpenBabel07192307433D

 54 57  0  0  1  0  0  0  0  0999 V2000
    3.1040    3.9010   18.2610 N   0  0  0  0  0  0  0  0  0  0  0  0
    1.7420    4.1690   18.3490 C   0  0  0  0  0  0  0  0  0  0  0  0
    0.8510    3.3700   18.5960 O   0  0  0  0  0  0  0  0  0  0  0  0
    1.5300    5.6520   18.1780 C   0  0  0  0  0  0  0  0  0  0  0  0
    2.8810    6.1450   17.6550 C   0  0  2  0  0  0  0  0  0  0  0  0
    3.8740    5.1310   18.2340 C   0  0  2  0  0  0  0  0  0  0  0  0
    1.2610    6.0710   19.1510 H   0  0  0  0  0  0  0  0  0  0  0  0
    0.7300    5.8430   17.4580 H   0  0  0  0  0  0  0  0  0  0  0  0
    2.8520    6.0520   16.5590 H   0  0  0  0  0  0  0  0  0  0  0  0
    4.1100    5.3650   19.2800 H   0  0  0  0  0  0  0  0  0  0  0  0
    5.1340    5.0010   17.4470 C   0  0  0  0  0  0  0  0  0  0  0  0
    6.4550    4.7990   17.9130 C   0  0  0  0  0  0  0  0  0  0  0  0
    7.3440    4.7010   16.9220 N   0  0  0  0  0  0  0  0  0  0  0  0
    6.5990    4.8370   15.8130 N   0  0  0  0  0  0  0  0  0  0  0  0
    5.2730    5.0230   16.0710 C   0  0  0  0  0  0  0  0  0  0  0  0
    6.8020    4.7280   18.9380 H   0  0  0  0  0  0  0  0  0  0  0  0
    4.5480    5.1400   15.2790 H   0  0  0  0  0  0  0  0  0  0  0  0
    7.2320    4.7650   14.5190 C   0  0  0  0  0  0  0  0  0  0  0  0
    6.6370    5.3460   13.8100 H   0  0  0  0  0  0  0  0  0  0  0  0
    7.2800    3.7220   14.1960 H   0  0  0  0  0  0  0  0  0  0  0  0
    8.2400    5.1770   14.6060 H   0  0  0  0  0  0  0  0  0  0  0  0
    3.6600    2.6090   18.6600 C   0  0  0  0  0  0  0  0  0  0  0  0
    4.5800    2.4470   18.0880 H   0  0  0  0  0  0  0  0  0  0  0  0
    2.9600    1.8200   18.3640 H   0  0  0  0  0  0  0  0  0  0  0  0
    3.9740    2.5060   20.1600 C   0  0  0  0  0  0  0  0  0  0  0  0
    4.3980    3.4510   20.5230 H   0  0  0  0  0  0  0  0  0  0  0  0
    4.7370    1.7430   20.3290 H   0  0  0  0  0  0  0  0  0  0  0  0
    2.8480    2.1410   20.9610 O   0  0  0  0  0  0  0  0  0  0  0  0
    2.3350    3.2170   21.7340 C   0  0  0  0  0  0  0  0  0  0  0  0
    2.0050    2.8560   22.7130 H   0  0  0  0  0  0  0  0  0  0  0  0
    3.0740    4.0100   21.8610 H   0  0  0  0  0  0  0  0  0  0  0  0
    1.4700    3.6320   21.2090 H   0  0  0  0  0  0  0  0  0  0  0  0
    3.2070    7.6080   17.9750 C   0  0  0  0  0  0  0  0  0  0  0  0
    4.2150    7.8250   17.6040 H   0  0  0  0  0  0  0  0  0  0  0  0
    3.2290    7.7210   19.0650 H   0  0  0  0  0  0  0  0  0  0  0  0
    2.2440    8.5540   17.3980 N   0  0  0  0  0  0  0  0  0  0  0  0
    2.6100    8.9210   16.5200 H   0  0  0  0  0  0  0  0  0  0  0  0
    2.0080    9.7000   18.2920 C   0  0  0  0  0  0  0  0  0  0  0  0
    2.2690    9.3960   19.3130 H   0  0  0  0  0  0  0  0  0  0  0  0
    2.6640   10.5410   18.0420 H   0  0  0  0  0  0  0  0  0  0  0  0
    0.5720   10.1150   18.2610 C   0  0  0  0  0  0  0  0  0  0  0  0
   -0.0500   11.1280   18.9640 C   0  0  0  0  0  0  0  0  0  0  0  0
   -1.3700   11.0840   18.5950 N   0  0  0  0  0  0  0  0  0  0  0  0
   -2.4340   11.8820   19.0090 C   0  0  0  0  0  0  0  0  0  0  0  0
   -3.6600   11.6480   18.5060 C   0  0  0  0  0  0  0  0  0  0  0  0
   -3.8320   10.5690   17.5440 C   0  0  0  0  0  0  0  0  0  0  0  0
   -2.7950    9.8030   17.1500 C   0  0  0  0  0  0  0  0  0  0  0  0
   -1.4960   10.0440   17.6810 C   0  0  0  0  0  0  0  0  0  0  0  0
   -0.3410    9.4510   17.4670 N   0  0  0  0  0  0  0  0  0  0  0  0
    0.3240   11.8500   19.6750 H   0  0  0  0  0  0  0  0  0  0  0  0
   -2.2260   12.6650   19.7270 H   0  0  0  0  0  0  0  0  0  0  0  0
   -4.5230   12.2390   18.7940 H   0  0  0  0  0  0  0  0  0  0  0  0
   -4.8280   10.3980   17.1480 H   0  0  0  0  0  0  0  0  0  0  0  0
   -2.9190    8.9990   16.4320 H   0  0  0  0  0  0  0  0  0  0  0  0
  1  2  1  0  0  0  0
  1 22  1  0  0  0  0
  2  3  2  0  0  0  0
  4  2  1  0  0  0  0
  4  7  1  0  0  0  0
  5  9  1  6  0  0  0
  5 33  1  0  0  0  0
  5  4  1  0  0  0  0
  5  6  1  0  0  0  0
  6  1  1  0  0  0  0
  6 10  1  1  0  0  0
  8  4  1  0  0  0  0
 11 12  1  0  0  0  0
 11  6  1  0  0  0  0
 12 16  1  0  0  0  0
 13 12  2  0  0  0  0
 14 15  1  0  0  0  0
 14 13  1  0  0  0  0
 15 11  2  0  0  0  0
 17 15  1  0  0  0  0
 18 21  1  0  0  0  0
 18 14  1  0  0  0  0
 19 18  1  0  0  0  0
 20 18  1  0  0  0  0
 22 25  1  0  0  0  0
 23 22  1  0  0  0  0
 24 22  1  0  0  0  0
 25 27  1  0  0  0  0
 25 26  1  0  0  0  0
 25 28  1  0  0  0  0
 28 29  1  0  0  0  0
 29 31  1  0  0  0  0
 29 30  1  0  0  0  0
 32 29  1  0  0  0  0
 33 35  1  0  0  0  0
 34 33  1  0  0  0  0
 36 33  1  0  0  0  0
 36 38  1  0  0  0  0
 37 36  1  0  0  0  0
 38 39  1  0  0  0  0
 40 38  1  0  0  0  0
 41 38  1  0  0  0  0
 41 42  2  0  0  0  0
 42 50  1  0  0  0  0
 43 42  1  0  0  0  0
 43 44  1  0  0  0  0
 44 51  1  0  0  0  0
 45 52  1  0  0  0  0
 45 44  2  0  0  0  0
 46 45  1  0  0  0  0
 47 46  2  0  0  0  0
 47 48  1  0  0  0  0
 48 43  1  0  0  0  0
 49 48  2  0  0  0  0
 49 41  1  0  0  0  0
 53 46  1  0  0  0  0
 54 47  1  0  0  0  0
M  END
>  <MODEL>
5

>  <REMARK>
 VINA RESULT:    -6.596      2.109      2.630
 INTER + INTRA:         -11.018
 INTER:                 -10.063
 INTRA:                  -0.955
 UNBOUND:                -0.951
  Name = 
  10 active torsions:
  status: ('A' for Active; 'I' for Inactive)
    1  A    between atoms: C_1  and  O_2
    2  A    between atoms: O_2  and  C_3
    3  A    between atoms: C_3  and  C_4
    4  A    between atoms: C_4  and  N_5
    5  A    between atoms: C_9  and  C_10
    6  A    between atoms: C_10  and  N_11
    7  A    between atoms: N_11  and  C_12
    8  A    between atoms: C_12  and  C_13
    9  A    between atoms: C_22  and  C_23
   10  A    between atoms: N_26  and  C_27
                            x       y       z     vdW  Elec       q    Type
                         _______ _______ _______ _____ _____    ______ ____

>  <TORSDO>
F 10

$$$$
=
 OpenBabel07192307433D

 54 57  0  0  1  0  0  0  0  0999 V2000
    4.5330    5.3990   17.6080 N   0  0  0  0  0  0  0  0  0  0  0  0
    5.1880    6.6120   17.4250 C   0  0  0  0  0  0  0  0  0  0  0  0
    6.3630    6.7760   17.1320 O   0  0  0  0  0  0  0  0  0  0  0  0
    4.1820    7.7280   17.5590 C   0  0  0  0  0  0  0  0  0  0  0  0
    2.9610    7.0340   18.1640 C   0  0  2  0  0  0  0  0  0  0  0  0
    3.0960    5.5900   17.6670 C   0  0  2  0  0  0  0  0  0  0  0  0
    4.0010    8.1420   16.5640 H   0  0  0  0  0  0  0  0  0  0  0  0
    4.5660    8.5090   18.2210 H   0  0  0  0  0  0  0  0  0  0  0  0
    3.0850    7.0640   19.2570 H   0  0  0  0  0  0  0  0  0  0  0  0
    2.7330    5.4930   16.6360 H   0  0  0  0  0  0  0  0  0  0  0  0
    2.4200    4.5860   18.5380 C   0  0  0  0  0  0  0  0  0  0  0  0
    1.5330    3.5450   18.1710 C   0  0  0  0  0  0  0  0  0  0  0  0
    1.1360    2.8110   19.2140 N   0  0  0  0  0  0  0  0  0  0  0  0
    1.7670    3.3750   20.2570 N   0  0  0  0  0  0  0  0  0  0  0  0
    2.5430    4.4410   19.9080 C   0  0  0  0  0  0  0  0  0  0  0  0
    1.1570    3.3010   17.1840 H   0  0  0  0  0  0  0  0  0  0  0  0
    3.1180    4.9910   20.6390 H   0  0  0  0  0  0  0  0  0  0  0  0
    1.5870    2.8240   21.5770 C   0  0  0  0  0  0  0  0  0  0  0  0
    0.6640    2.2410   21.5860 H   0  0  0  0  0  0  0  0  0  0  0  0
    1.5200    3.6380   22.3040 H   0  0  0  0  0  0  0  0  0  0  0  0
    2.4470    2.1900   21.8050 H   0  0  0  0  0  0  0  0  0  0  0  0
    5.1650    4.1260   17.2660 C   0  0  0  0  0  0  0  0  0  0  0  0
    4.5460    3.3210   17.6770 H   0  0  0  0  0  0  0  0  0  0  0  0
    6.1350    4.0690   17.7720 H   0  0  0  0  0  0  0  0  0  0  0  0
    5.3390    3.9060   15.7560 C   0  0  0  0  0  0  0  0  0  0  0  0
    4.7160    4.6160   15.1960 H   0  0  0  0  0  0  0  0  0  0  0  0
    4.9880    2.9080   15.4820 H   0  0  0  0  0  0  0  0  0  0  0  0
    6.6950    3.9960   15.3130 O   0  0  0  0  0  0  0  0  0  0  0  0
    6.8480    4.7560   14.1230 C   0  0  0  0  0  0  0  0  0  0  0  0
    5.9380    5.3320   13.9220 H   0  0  0  0  0  0  0  0  0  0  0  0
    7.7060    5.4270   14.1800 H   0  0  0  0  0  0  0  0  0  0  0  0
    7.0070    4.0620   13.2930 H   0  0  0  0  0  0  0  0  0  0  0  0
    1.6140    7.6930   17.8440 C   0  0  0  0  0  0  0  0  0  0  0  0
    0.9090    7.4380   18.6430 H   0  0  0  0  0  0  0  0  0  0  0  0
    1.2320    7.2520   16.9170 H   0  0  0  0  0  0  0  0  0  0  0  0
    1.7050    9.1510   17.6980 N   0  0  0  0  0  0  0  0  0  0  0  0
    2.6860    9.4290   17.6630 H   0  0  0  0  0  0  0  0  0  0  0  0
    1.0890    9.8490   18.8380 C   0  0  0  0  0  0  0  0  0  0  0  0
    1.0630    9.1580   19.6890 H   0  0  0  0  0  0  0  0  0  0  0  0
    1.6940   10.7070   19.1540 H   0  0  0  0  0  0  0  0  0  0  0  0
   -0.3080   10.2720   18.5140 C   0  0  0  0  0  0  0  0  0  0  0  0
   -1.1600   11.0740   19.2480 C   0  0  0  0  0  0  0  0  0  0  0  0
   -2.3250   11.1400   18.5270 N   0  0  0  0  0  0  0  0  0  0  0  0
   -3.5100   11.8140   18.8150 C   0  0  0  0  0  0  0  0  0  0  0  0
   -4.5350   11.7300   17.9490 C   0  0  0  0  0  0  0  0  0  0  0  0
   -4.3710   10.9390   16.7380 C   0  0  0  0  0  0  0  0  0  0  0  0
   -3.2200   10.2910   16.4680 C   0  0  0  0  0  0  0  0  0  0  0  0
   -2.1320   10.3740   17.3830 C   0  0  0  0  0  0  0  0  0  0  0  0
   -0.9270    9.8450   17.3570 N   0  0  0  0  0  0  0  0  0  0  0  0
   -1.0390   11.5840   20.1930 H   0  0  0  0  0  0  0  0  0  0  0  0
   -3.5540   12.3820   19.7350 H   0  0  0  0  0  0  0  0  0  0  0  0
   -5.4800   12.2340   18.1240 H   0  0  0  0  0  0  0  0  0  0  0  0
   -5.2100   10.8860   16.0500 H   0  0  0  0  0  0  0  0  0  0  0  0
   -3.0940    9.7020   15.5670 H   0  0  0  0  0  0  0  0  0  0  0  0
  1  6  1  0  0  0  0
  2  4  1  0  0  0  0
  2  1  1  0  0  0  0
  3  2  2  0  0  0  0
  4  5  1  0  0  0  0
  4  8  1  0  0  0  0
  5  9  1  1  0  0  0
  6 10  1  6  0  0  0
  6  5  1  0  0  0  0
  6 11  1  0  0  0  0
  7  4  1  0  0  0  0
 11 15  2  0  0  0  0
 12 11  1  0  0  0  0
 12 13  2  0  0  0  0
 13 14  1  0  0  0  0
 14 18  1  0  0  0  0
 15 14  1  0  0  0  0
 15 17  1  0  0  0  0
 16 12  1  0  0  0  0
 18 19  1  0  0  0  0
 18 21  1  0  0  0  0
 18 20  1  0  0  0  0
 22  1  1  0  0  0  0
 22 23  1  0  0  0  0
 22 24  1  0  0  0  0
 25 22  1  0  0  0  0
 26 25  1  0  0  0  0
 27 25  1  0  0  0  0
 28 25  1  0  0  0  0
 29 31  1  0  0  0  0
 29 28  1  0  0  0  0
 30 29  1  0  0  0  0
 32 29  1  0  0  0  0
 33  5  1  0  0  0  0
 33 34  1  0  0  0  0
 35 33  1  0  0  0  0
 36 33  1  0  0  0  0
 36 38  1  0  0  0  0
 37 36  1  0  0  0  0
 38 40  1  0  0  0  0
 38 39  1  0  0  0  0
 41 38  1  0  0  0  0
 41 42  2  0  0  0  0
 42 50  1  0  0  0  0
 43 44  1  0  0  0  0
 43 42  1  0  0  0  0
 44 51  1  0  0  0  0
 45 52  1  0  0  0  0
 45 44  2  0  0  0  0
 46 45  1  0  0  0  0
 47 46  2  0  0  0  0
 47 48  1  0  0  0  0
 48 43  1  0  0  0  0
 49 48  2  0  0  0  0
 49 41  1  0  0  0  0
 53 46  1  0  0  0  0
 54 47  1  0  0  0  0
M  END
>  <MODEL>
6

>  <REMARK>
 VINA RESULT:    -6.549      2.886      4.591
 INTER + INTRA:         -10.945
 INTER:                 -10.129
 INTRA:                  -0.816
 UNBOUND:                -0.951
  Name = 
  10 active torsions:
  status: ('A' for Active; 'I' for Inactive)
    1  A    between atoms: C_1  and  O_2
    2  A    between atoms: O_2  and  C_3
    3  A    between atoms: C_3  and  C_4
    4  A    between atoms: C_4  and  N_5
    5  A    between atoms: C_9  and  C_10
    6  A    between atoms: C_10  and  N_11
    7  A    between atoms: N_11  and  C_12
    8  A    between atoms: C_12  and  C_13
    9  A    between atoms: C_22  and  C_23
   10  A    between atoms: N_26  and  C_27
                            x       y       z     vdW  Elec       q    Type
                         _______ _______ _______ _____ _____    ______ ____

>  <TORSDO>
F 10

$$$$
=
 OpenBabel07192307433D

 54 57  0  0  1  0  0  0  0  0999 V2000
    5.2740    5.1560   17.3660 N   0  0  0  0  0  0  0  0  0  0  0  0
    5.9540    6.3670   17.2850 C   0  0  0  0  0  0  0  0  0  0  0  0
    7.1350    6.5300   17.0200 O   0  0  0  0  0  0  0  0  0  0  0  0
    4.9670    7.4890   17.4890 C   0  0  0  0  0  0  0  0  0  0  0  0
    3.7240    6.7750   18.0230 C   0  0  2  0  0  0  0  0  0  0  0  0
    3.8400    5.3700   17.4210 C   0  0  2  0  0  0  0  0  0  0  0  0
    4.8070    7.9800   16.5250 H   0  0  0  0  0  0  0  0  0  0  0  0
    5.3540    8.2110   18.2130 H   0  0  0  0  0  0  0  0  0  0  0  0
    3.8320    6.7210   19.1170 H   0  0  0  0  0  0  0  0  0  0  0  0
    3.4900    5.3570   16.3810 H   0  0  0  0  0  0  0  0  0  0  0  0
    3.1330    4.3170   18.2050 C   0  0  0  0  0  0  0  0  0  0  0  0
    2.4240    3.1850   17.7350 C   0  0  0  0  0  0  0  0  0  0  0  0
    1.9360    2.4320   18.7240 N   0  0  0  0  0  0  0  0  0  0  0  0
    2.3310    3.0740   19.8350 N   0  0  0  0  0  0  0  0  0  0  0  0
    3.0450    4.2080   19.5810 C   0  0  0  0  0  0  0  0  0  0  0  0
    2.2390    2.8870   16.7090 H   0  0  0  0  0  0  0  0  0  0  0  0
    3.4370    4.8260   20.3760 H   0  0  0  0  0  0  0  0  0  0  0  0
    1.9940    2.5290   21.1270 C   0  0  0  0  0  0  0  0  0  0  0  0
    1.7190    1.4800   20.9990 H   0  0  0  0  0  0  0  0  0  0  0  0
    1.1510    3.0860   21.5470 H   0  0  0  0  0  0  0  0  0  0  0  0
    2.8660    2.6240   21.7790 H   0  0  0  0  0  0  0  0  0  0  0  0
    5.8880    3.9010   16.9380 C   0  0  0  0  0  0  0  0  0  0  0  0
    5.4370    3.0900   17.5200 H   0  0  0  0  0  0  0  0  0  0  0  0
    6.9510    3.9230   17.2000 H   0  0  0  0  0  0  0  0  0  0  0  0
    5.7140    3.6050   15.4410 C   0  0  0  0  0  0  0  0  0  0  0  0
    4.7240    3.9370   15.1030 H   0  0  0  0  0  0  0  0  0  0  0  0
    5.7510    2.5270   15.2690 H   0  0  0  0  0  0  0  0  0  0  0  0
    6.7290    4.1840   14.6180 O   0  0  0  0  0  0  0  0  0  0  0  0
    6.5180    3.9660   13.2300 C   0  0  0  0  0  0  0  0  0  0  0  0
    7.0610    4.7140   12.6430 H   0  0  0  0  0  0  0  0  0  0  0  0
    6.8260    2.9630   12.9290 H   0  0  0  0  0  0  0  0  0  0  0  0
    5.4500    4.0760   13.0260 H   0  0  0  0  0  0  0  0  0  0  0  0
    2.3940    7.4830   17.7360 C   0  0  0  0  0  0  0  0  0  0  0  0
    1.6120    6.9970   18.3300 H   0  0  0  0  0  0  0  0  0  0  0  0
    2.1480    7.3260   16.6800 H   0  0  0  0  0  0  0  0  0  0  0  0
    2.4310    8.9210   18.0280 N   0  0  0  0  0  0  0  0  0  0  0  0
    2.6600    9.0630   19.0120 H   0  0  0  0  0  0  0  0  0  0  0  0
    1.1260    9.5570   17.7830 C   0  0  0  0  0  0  0  0  0  0  0  0
    1.2900   10.4450   17.1620 H   0  0  0  0  0  0  0  0  0  0  0  0
    0.4630    8.8970   17.2110 H   0  0  0  0  0  0  0  0  0  0  0  0
    0.4850    9.9740   19.0670 C   0  0  0  0  0  0  0  0  0  0  0  0
   -0.2800   11.0940   19.3260 C   0  0  0  0  0  0  0  0  0  0  0  0
   -0.6110   11.0220   20.6560 N   0  0  0  0  0  0  0  0  0  0  0  0
   -1.3670   11.8970   21.4320 C   0  0  0  0  0  0  0  0  0  0  0  0
   -1.5580   11.6190   22.7330 C   0  0  0  0  0  0  0  0  0  0  0  0
   -0.9690   10.4080   23.2880 C   0  0  0  0  0  0  0  0  0  0  0  0
   -0.2390    9.5660   22.5280 C   0  0  0  0  0  0  0  0  0  0  0  0
   -0.0310    9.8590   21.1500 C   0  0  0  0  0  0  0  0  0  0  0  0
    0.6310    9.2160   20.2110 N   0  0  0  0  0  0  0  0  0  0  0  0
   -0.6040   11.9110   18.6980 H   0  0  0  0  0  0  0  0  0  0  0  0
   -1.7720   12.7760   20.9460 H   0  0  0  0  0  0  0  0  0  0  0  0
   -2.1380   12.2660   23.3820 H   0  0  0  0  0  0  0  0  0  0  0  0
   -1.1370   10.1980   24.3390 H   0  0  0  0  0  0  0  0  0  0  0  0
    0.2000    8.6630   22.9370 H   0  0  0  0  0  0  0  0  0  0  0  0
  1  6  1  0  0  0  0
  2  1  1  0  0  0  0
  2  4  1  0  0  0  0
  3  2  2  0  0  0  0
  4  5  1  0  0  0  0
  4  8  1  0  0  0  0
  5  9  1  1  0  0  0
  6 10  1  6  0  0  0
  6  5  1  0  0  0  0
  6 11  1  0  0  0  0
  7  4  1  0  0  0  0
 11 15  2  0  0  0  0
 12 11  1  0  0  0  0
 12 13  2  0  0  0  0
 13 14  1  0  0  0  0
 14 18  1  0  0  0  0
 15 14  1  0  0  0  0
 15 17  1  0  0  0  0
 16 12  1  0  0  0  0
 18 20  1  0  0  0  0
 18 21  1  0  0  0  0
 19 18  1  0  0  0  0
 22 24  1  0  0  0  0
 22  1  1  0  0  0  0
 22 23  1  0  0  0  0
 25 22  1  0  0  0  0
 26 25  1  0  0  0  0
 27 25  1  0  0  0  0
 28 25  1  0  0  0  0
 29 28  1  0  0  0  0
 30 29  1  0  0  0  0
 31 29  1  0  0  0  0
 32 29  1  0  0  0  0
 33  5  1  0  0  0  0
 33 36  1  0  0  0  0
 33 34  1  0  0  0  0
 35 33  1  0  0  0  0
 36 37  1  0  0  0  0
 38 36  1  0  0  0  0
 38 41  1  0  0  0  0
 39 38  1  0  0  0  0
 40 38  1  0  0  0  0
 41 42  2  0  0  0  0
 41 49  1  0  0  0  0
 42 43  1  0  0  0  0
 43 48  1  0  0  0  0
 43 44  1  0  0  0  0
 44 45  2  0  0  0  0
 45 46  1  0  0  0  0
 45 52  1  0  0  0  0
 46 53  1  0  0  0  0
 47 54  1  0  0  0  0
 47 46  2  0  0  0  0
 48 47  1  0  0  0  0
 49 48  2  0  0  0  0
 50 42  1  0  0  0  0
 51 44  1  0  0  0  0
M  END
>  <MODEL>
7

>  <REMARK>
 VINA RESULT:    -6.518      2.039      3.664
 INTER + INTRA:         -10.898
 INTER:                  -9.986
 INTRA:                  -0.912
 UNBOUND:                -0.951
  Name = 
  10 active torsions:
  status: ('A' for Active; 'I' for Inactive)
    1  A    between atoms: C_1  and  O_2
    2  A    between atoms: O_2  and  C_3
    3  A    between atoms: C_3  and  C_4
    4  A    between atoms: C_4  and  N_5
    5  A    between atoms: C_9  and  C_10
    6  A    between atoms: C_10  and  N_11
    7  A    between atoms: N_11  and  C_12
    8  A    between atoms: C_12  and  C_13
    9  A    between atoms: C_22  and  C_23
   10  A    between atoms: N_26  and  C_27
                            x       y       z     vdW  Elec       q    Type
                         _______ _______ _______ _____ _____    ______ ____

>  <TORSDO>
F 10

$$$$
=
 OpenBabel07192307433D

 54 57  0  0  1  0  0  0  0  0999 V2000
    3.0980    3.8100   20.1500 N   0  0  0  0  0  0  0  0  0  0  0  0
    1.7880    3.7530   20.6150 C   0  0  0  0  0  0  0  0  0  0  0  0
    1.2280    2.7900   21.1170 O   0  0  0  0  0  0  0  0  0  0  0  0
    1.1710    5.1230   20.4870 C   0  0  0  0  0  0  0  0  0  0  0  0
    2.1600    5.8760   19.5950 C   0  0  2  0  0  0  0  0  0  0  0  0
    3.4950    5.1810   19.8860 C   0  0  2  0  0  0  0  0  0  0  0  0
    1.0770    5.5480   21.4900 H   0  0  0  0  0  0  0  0  0  0  0  0
    0.1850    5.0550   20.0200 H   0  0  0  0  0  0  0  0  0  0  0  0
    1.8600    5.6840   18.5540 H   0  0  0  0  0  0  0  0  0  0  0  0
    3.9380    5.5540   20.8180 H   0  0  0  0  0  0  0  0  0  0  0  0
    4.4860    5.2870   18.7770 C   0  0  0  0  0  0  0  0  0  0  0  0
    5.9000    5.3080   18.8480 C   0  0  0  0  0  0  0  0  0  0  0  0
    6.4780    5.3850   17.6470 N   0  0  0  0  0  0  0  0  0  0  0  0
    5.4380    5.4120   16.7970 N   0  0  0  0  0  0  0  0  0  0  0  0
    4.2270    5.3600   17.4200 C   0  0  0  0  0  0  0  0  0  0  0  0
    6.5280    5.2780   19.7320 H   0  0  0  0  0  0  0  0  0  0  0  0
    3.2990    5.3650   16.8670 H   0  0  0  0  0  0  0  0  0  0  0  0
    5.6840    5.4760   15.3770 C   0  0  0  0  0  0  0  0  0  0  0  0
    5.4110    6.4720   15.0230 H   0  0  0  0  0  0  0  0  0  0  0  0
    5.0770    4.7210   14.8690 H   0  0  0  0  0  0  0  0  0  0  0  0
    6.7450    5.2820   15.2030 H   0  0  0  0  0  0  0  0  0  0  0  0
    4.0480    2.7280   20.3960 C   0  0  0  0  0  0  0  0  0  0  0  0
    3.6910    2.1550   21.2600 H   0  0  0  0  0  0  0  0  0  0  0  0
    5.0100    3.1640   20.6840 H   0  0  0  0  0  0  0  0  0  0  0  0
    4.2300    1.7780   19.2030 C   0  0  0  0  0  0  0  0  0  0  0  0
    4.8040    0.8940   19.5070 H   0  0  0  0  0  0  0  0  0  0  0  0
    4.8150    2.2700   18.4220 H   0  0  0  0  0  0  0  0  0  0  0  0
    3.0000    1.3740   18.5960 O   0  0  0  0  0  0  0  0  0  0  0  0
    2.6810    2.1140   17.4270 C   0  0  0  0  0  0  0  0  0  0  0  0
    2.6400    3.1840   17.6560 H   0  0  0  0  0  0  0  0  0  0  0  0
    3.4000    1.9330   16.6260 H   0  0  0  0  0  0  0  0  0  0  0  0
    1.6930    1.7970   17.0810 H   0  0  0  0  0  0  0  0  0  0  0  0
    2.1800    7.3970   19.7860 C   0  0  0  0  0  0  0  0  0  0  0  0
    1.4350    7.8370   19.1130 H   0  0  0  0  0  0  0  0  0  0  0  0
    3.1630    7.7660   19.4710 H   0  0  0  0  0  0  0  0  0  0  0  0
    1.9150    7.8090   21.1700 N   0  0  0  0  0  0  0  0  0  0  0  0
    2.0240    7.0070   21.7910 H   0  0  0  0  0  0  0  0  0  0  0  0
    0.5410    8.3110   21.3330 C   0  0  0  0  0  0  0  0  0  0  0  0
   -0.1400    7.6080   20.8390 H   0  0  0  0  0  0  0  0  0  0  0  0
    0.2490    8.3350   22.3890 H   0  0  0  0  0  0  0  0  0  0  0  0
    0.3860    9.6580   20.7050 C   0  0  0  0  0  0  0  0  0  0  0  0
   -0.4360   10.0350   19.6620 C   0  0  0  0  0  0  0  0  0  0  0  0
   -0.1910   11.3690   19.4550 N   0  0  0  0  0  0  0  0  0  0  0  0
   -0.7490   12.2400   18.5230 C   0  0  0  0  0  0  0  0  0  0  0  0
   -0.3460   13.5230   18.5040 C   0  0  0  0  0  0  0  0  0  0  0  0
    0.6600   13.9590   19.4630 C   0  0  0  0  0  0  0  0  0  0  0  0
    1.1930   13.1080   20.3620 C   0  0  0  0  0  0  0  0  0  0  0  0
    0.7720   11.7480   20.3840 C   0  0  0  0  0  0  0  0  0  0  0  0
    1.1310   10.7340   21.1430 N   0  0  0  0  0  0  0  0  0  0  0  0
   -1.1500    9.4840   19.0670 H   0  0  0  0  0  0  0  0  0  0  0  0
   -1.4920   11.8410   17.8440 H   0  0  0  0  0  0  0  0  0  0  0  0
   -0.7470   14.2430   17.7990 H   0  0  0  0  0  0  0  0  0  0  0  0
    0.9700   14.9990   19.4340 H   0  0  0  0  0  0  0  0  0  0  0  0
    1.9410   13.4290   21.0780 H   0  0  0  0  0  0  0  0  0  0  0  0
  1 22  1  0  0  0  0
  1  2  1  0  0  0  0
  2  3  2  0  0  0  0
  4  2  1  0  0  0  0
  4  7  1  0  0  0  0
  5  9  1  6  0  0  0
  5 33  1  0  0  0  0
  5  6  1  0  0  0  0
  5  4  1  0  0  0  0
  6  1  1  0  0  0  0
  6 10  1  1  0  0  0
  8  4  1  0  0  0  0
 11 12  1  0  0  0  0
 11  6  1  0  0  0  0
 12 16  1  0  0  0  0
 13 12  2  0  0  0  0
 14 15  1  0  0  0  0
 14 13  1  0  0  0  0
 15 11  2  0  0  0  0
 17 15  1  0  0  0  0
 18 14  1  0  0  0  0
 19 18  1  0  0  0  0
 20 18  1  0  0  0  0
 21 18  1  0  0  0  0
 22 24  1  0  0  0  0
 22 23  1  0  0  0  0
 25 26  1  0  0  0  0
 25 22  1  0  0  0  0
 27 25  1  0  0  0  0
 28 25  1  0  0  0  0
 29 30  1  0  0  0  0
 29 28  1  0  0  0  0
 31 29  1  0  0  0  0
 32 29  1  0  0  0  0
 33 36  1  0  0  0  0
 34 33  1  0  0  0  0
 35 33  1  0  0  0  0
 36 38  1  0  0  0  0
 36 37  1  0  0  0  0
 38 40  1  0  0  0  0
 39 38  1  0  0  0  0
 41 49  1  0  0  0  0
 41 38  1  0  0  0  0
 42 41  2  0  0  0  0
 43 42  1  0  0  0  0
 43 48  1  0  0  0  0
 44 43  1  0  0  0  0
 45 44  2  0  0  0  0
 45 46  1  0  0  0  0
 46 47  2  0  0  0  0
 47 48  1  0  0  0  0
 47 54  1  0  0  0  0
 48 49  2  0  0  0  0
 50 42  1  0  0  0  0
 51 44  1  0  0  0  0
 52 45  1  0  0  0  0
 53 46  1  0  0  0  0
M  END
>  <MODEL>
8

>  <REMARK>
 VINA RESULT:    -6.373      1.750      2.473
 INTER + INTRA:         -10.677
 INTER:                 -10.065
 INTRA:                  -0.612
 UNBOUND:                -0.951
  Name = 
  10 active torsions:
  status: ('A' for Active; 'I' for Inactive)
    1  A    between atoms: C_1  and  O_2
    2  A    between atoms: O_2  and  C_3
    3  A    between atoms: C_3  and  C_4
    4  A    between atoms: C_4  and  N_5
    5  A    between atoms: C_9  and  C_10
    6  A    between atoms: C_10  and  N_11
    7  A    between atoms: N_11  and  C_12
    8  A    between atoms: C_12  and  C_13
    9  A    between atoms: C_22  and  C_23
   10  A    between atoms: N_26  and  C_27
                            x       y       z     vdW  Elec       q    Type
                         _______ _______ _______ _____ _____    ______ ____

>  <TORSDO>
F 10

$$$$
=
 OpenBabel07192307433D

 54 57  0  0  1  0  0  0  0  0999 V2000
    3.1150    3.7110   20.1720 N   0  0  0  0  0  0  0  0  0  0  0  0
    1.8250    3.5710   20.6720 C   0  0  0  0  0  0  0  0  0  0  0  0
    1.3130    2.5510   21.1070 O   0  0  0  0  0  0  0  0  0  0  0  0
    1.1620    4.9260   20.6830 C   0  0  0  0  0  0  0  0  0  0  0  0
    2.0960    5.7840   19.8280 C   0  0  2  0  0  0  0  0  0  0  0  0
    3.4610    5.1120   20.0150 C   0  0  2  0  0  0  0  0  0  0  0  0
    1.0910    5.2600   21.7220 H   0  0  0  0  0  0  0  0  0  0  0  0
    0.1630    4.8640   20.2440 H   0  0  0  0  0  0  0  0  0  0  0  0
    1.7650    5.6720   18.7840 H   0  0  0  0  0  0  0  0  0  0  0  0
    3.9240    5.4190   20.9610 H   0  0  0  0  0  0  0  0  0  0  0  0
    4.4080    5.3450   18.8870 C   0  0  0  0  0  0  0  0  0  0  0  0
    5.8210    5.4350   18.9190 C   0  0  0  0  0  0  0  0  0  0  0  0
    6.3540    5.6250   17.7090 N   0  0  0  0  0  0  0  0  0  0  0  0
    5.2880    5.6550   16.8930 N   0  0  0  0  0  0  0  0  0  0  0  0
    4.1020    5.4970   17.5470 C   0  0  0  0  0  0  0  0  0  0  0  0
    6.4790    5.3780   19.7790 H   0  0  0  0  0  0  0  0  0  0  0  0
    3.1570    5.4910   17.0220 H   0  0  0  0  0  0  0  0  0  0  0  0
    5.4840    5.8280   15.4750 C   0  0  0  0  0  0  0  0  0  0  0  0
    4.7740    6.5770   15.1170 H   0  0  0  0  0  0  0  0  0  0  0  0
    5.3090    4.8770   14.9650 H   0  0  0  0  0  0  0  0  0  0  0  0
    6.5120    6.1590   15.3080 H   0  0  0  0  0  0  0  0  0  0  0  0
    4.1060    2.6440   20.2930 C   0  0  0  0  0  0  0  0  0  0  0  0
    3.8140    2.0070   21.1350 H   0  0  0  0  0  0  0  0  0  0  0  0
    5.0710    3.0900   20.5540 H   0  0  0  0  0  0  0  0  0  0  0  0
    4.2430    1.7790   19.0310 C   0  0  0  0  0  0  0  0  0  0  0  0
    4.8350    0.8810   19.2510 H   0  0  0  0  0  0  0  0  0  0  0  0
    4.7930    2.3280   18.2620 H   0  0  0  0  0  0  0  0  0  0  0  0
    2.9920    1.4060   18.4490 O   0  0  0  0  0  0  0  0  0  0  0  0
    2.6370    2.2000   17.3250 C   0  0  0  0  0  0  0  0  0  0  0  0
    3.3570    3.0140   17.1940 H   0  0  0  0  0  0  0  0  0  0  0  0
    2.5820    1.6040   16.4120 H   0  0  0  0  0  0  0  0  0  0  0  0
    1.6520    2.6360   17.5130 H   0  0  0  0  0  0  0  0  0  0  0  0
    2.0760    7.2830   20.1490 C   0  0  0  0  0  0  0  0  0  0  0  0
    1.6860    7.8160   19.2740 H   0  0  0  0  0  0  0  0  0  0  0  0
    3.1110    7.6120   20.2980 H   0  0  0  0  0  0  0  0  0  0  0  0
    1.2760    7.6090   21.3370 N   0  0  0  0  0  0  0  0  0  0  0  0
    0.2890    7.6510   21.0820 H   0  0  0  0  0  0  0  0  0  0  0  0
    1.6450    8.9210   21.8940 C   0  0  0  0  0  0  0  0  0  0  0  0
    1.9460    8.7750   22.9380 H   0  0  0  0  0  0  0  0  0  0  0  0
    2.5130    9.3440   21.3770 H   0  0  0  0  0  0  0  0  0  0  0  0
    0.4860    9.8640   21.8510 C   0  0  0  0  0  0  0  0  0  0  0  0
   -0.0250   10.5560   20.7700 C   0  0  0  0  0  0  0  0  0  0  0  0
   -1.0720   11.2950   21.2600 N   0  0  0  0  0  0  0  0  0  0  0  0
   -1.9280   12.1700   20.5960 C   0  0  0  0  0  0  0  0  0  0  0  0
   -2.8940   12.7940   21.2930 C   0  0  0  0  0  0  0  0  0  0  0  0
   -3.0140   12.5300   22.7200 C   0  0  0  0  0  0  0  0  0  0  0  0
   -2.1810   11.6800   23.3530 C   0  0  0  0  0  0  0  0  0  0  0  0
   -1.1550   11.0200   22.6200 C   0  0  0  0  0  0  0  0  0  0  0  0
   -0.2280   10.1630   22.9940 N   0  0  0  0  0  0  0  0  0  0  0  0
    0.2620   10.5860   19.7290 H   0  0  0  0  0  0  0  0  0  0  0  0
   -1.7750   12.3130   19.5340 H   0  0  0  0  0  0  0  0  0  0  0  0
   -3.5870   13.4850   20.8250 H   0  0  0  0  0  0  0  0  0  0  0  0
   -3.8020   13.0410   23.2650 H   0  0  0  0  0  0  0  0  0  0  0  0
   -2.2690   11.4810   24.4150 H   0  0  0  0  0  0  0  0  0  0  0  0
  1 22  1  0  0  0  0
  1  2  1  0  0  0  0
  2  4  1  0  0  0  0
  2  3  2  0  0  0  0
  4  7  1  0  0  0  0
  5  9  1  6  0  0  0
  5  6  1  0  0  0  0
  5 33  1  0  0  0  0
  5  4  1  0  0  0  0
  6  1  1  0  0  0  0
  6 10  1  1  0  0  0
  8  4  1  0  0  0  0
 11 12  1  0  0  0  0
 11  6  1  0  0  0  0
 12 16  1  0  0  0  0
 13 12  2  0  0  0  0
 14 15  1  0  0  0  0
 14 13  1  0  0  0  0
 15 11  2  0  0  0  0
 17 15  1  0  0  0  0
 18 14  1  0  0  0  0
 19 18  1  0  0  0  0
 20 18  1  0  0  0  0
 21 18  1  0  0  0  0
 22 24  1  0  0  0  0
 22 23  1  0  0  0  0
 25 26  1  0  0  0  0
 25 22  1  0  0  0  0
 27 25  1  0  0  0  0
 28 25  1  0  0  0  0
 29 32  1  0  0  0  0
 29 28  1  0  0  0  0
 30 29  1  0  0  0  0
 31 29  1  0  0  0  0
 33 35  1  0  0  0  0
 33 36  1  0  0  0  0
 34 33  1  0  0  0  0
 36 38  1  0  0  0  0
 37 36  1  0  0  0  0
 38 39  1  0  0  0  0
 40 38  1  0  0  0  0
 41 38  1  0  0  0  0
 41 49  1  0  0  0  0
 42 43  1  0  0  0  0
 42 41  2  0  0  0  0
 43 48  1  0  0  0  0
 44 43  1  0  0  0  0
 44 45  2  0  0  0  0
 45 46  1  0  0  0  0
 46 53  1  0  0  0  0
 46 47  2  0  0  0  0
 47 54  1  0  0  0  0
 48 49  2  0  0  0  0
 48 47  1  0  0  0  0
 50 42  1  0  0  0  0
 51 44  1  0  0  0  0
 52 45  1  0  0  0  0
M  END
>  <MODEL>
9

>  <REMARK>
 VINA RESULT:    -6.359      1.706      2.274
 INTER + INTRA:         -10.655
 INTER:                  -9.961
 INTRA:                  -0.694
 UNBOUND:                -0.951
  Name = 
  10 active torsions:
  status: ('A' for Active; 'I' for Inactive)
    1  A    between atoms: C_1  and  O_2
    2  A    between atoms: O_2  and  C_3
    3  A    between atoms: C_3  and  C_4
    4  A    between atoms: C_4  and  N_5
    5  A    between atoms: C_9  and  C_10
    6  A    between atoms: C_10  and  N_11
    7  A    between atoms: N_11  and  C_12
    8  A    between atoms: C_12  and  C_13
    9  A    between atoms: C_22  and  C_23
   10  A    between atoms: N_26  and  C_27
                            x       y       z     vdW  Elec       q    Type
                         _______ _______ _______ _____ _____    ______ ____

>  <TORSDO>
F 10

$$$$
=
 OpenBabel07192307433D

 54 57  0  0  1  0  0  0  0  0999 V2000
   -1.1410   11.8650   21.2470 N   0  0  0  0  0  0  0  0  0  0  0  0
   -1.6670   11.4720   22.4730 C   0  0  0  0  0  0  0  0  0  0  0  0
   -2.6990   11.8720   22.9920 O   0  0  0  0  0  0  0  0  0  0  0  0
   -0.7970   10.3810   23.0450 C   0  0  0  0  0  0  0  0  0  0  0  0
    0.4570   10.4330   22.1690 C   0  0  2  0  0  0  0  0  0  0  0  0
   -0.0680   10.9790   20.8360 C   0  0  2  0  0  0  0  0  0  0  0  0
   -1.3430    9.4370   22.9690 H   0  0  0  0  0  0  0  0  0  0  0  0
   -0.5610   10.5900   24.0910 H   0  0  0  0  0  0  0  0  0  0  0  0
    1.1370   11.1660   22.6300 H   0  0  0  0  0  0  0  0  0  0  0  0
   -0.5380   10.1850   20.2440 H   0  0  0  0  0  0  0  0  0  0  0  0
    0.9680   11.6750   20.0200 C   0  0  0  0  0  0  0  0  0  0  0  0
    1.4270   11.3650   18.7160 C   0  0  0  0  0  0  0  0  0  0  0  0
    2.3500   12.2230   18.2750 N   0  0  0  0  0  0  0  0  0  0  0  0
    2.4890   13.0900   19.2920 N   0  0  0  0  0  0  0  0  0  0  0  0
    1.6890   12.8060   20.3590 C   0  0  0  0  0  0  0  0  0  0  0  0
    1.1280   10.5420   18.0770 H   0  0  0  0  0  0  0  0  0  0  0  0
    1.6830   13.4200   21.2480 H   0  0  0  0  0  0  0  0  0  0  0  0
    3.4100   14.1920   19.1640 C   0  0  0  0  0  0  0  0  0  0  0  0
    3.7040   14.2780   18.1160 H   0  0  0  0  0  0  0  0  0  0  0  0
    4.2920   14.0010   19.7820 H   0  0  0  0  0  0  0  0  0  0  0  0
    2.9070   15.1020   19.5000 H   0  0  0  0  0  0  0  0  0  0  0  0
   -1.9010   12.6980   20.3180 C   0  0  0  0  0  0  0  0  0  0  0  0
   -1.1990   13.3780   19.8240 H   0  0  0  0  0  0  0  0  0  0  0  0
   -2.5940   13.3220   20.8920 H   0  0  0  0  0  0  0  0  0  0  0  0
   -2.6640   11.8990   19.2500 C   0  0  0  0  0  0  0  0  0  0  0  0
   -3.6820   12.2940   19.1390 H   0  0  0  0  0  0  0  0  0  0  0  0
   -2.7710   10.8600   19.5700 H   0  0  0  0  0  0  0  0  0  0  0  0
   -2.0130   11.8700   17.9780 O   0  0  0  0  0  0  0  0  0  0  0  0
   -1.9960   10.5780   17.3870 C   0  0  0  0  0  0  0  0  0  0  0  0
   -1.4450   10.6020   16.4400 H   0  0  0  0  0  0  0  0  0  0  0  0
   -1.5540    9.8350   18.0530 H   0  0  0  0  0  0  0  0  0  0  0  0
   -3.0280   10.2850   17.1780 H   0  0  0  0  0  0  0  0  0  0  0  0
    1.2260    9.1120   22.0570 C   0  0  0  0  0  0  0  0  0  0  0  0
    1.0430    8.5300   22.9680 H   0  0  0  0  0  0  0  0  0  0  0  0
    2.2970    9.3440   22.0280 H   0  0  0  0  0  0  0  0  0  0  0  0
    0.8570    8.3270   20.8730 N   0  0  0  0  0  0  0  0  0  0  0  0
    0.4370    7.4440   21.1670 H   0  0  0  0  0  0  0  0  0  0  0  0
    2.0330    8.0040   20.0480 C   0  0  0  0  0  0  0  0  0  0  0  0
    1.9820    8.6040   19.1320 H   0  0  0  0  0  0  0  0  0  0  0  0
    2.9630    8.2880   20.5530 H   0  0  0  0  0  0  0  0  0  0  0  0
    2.0450    6.5550   19.6800 C   0  0  0  0  0  0  0  0  0  0  0  0
    2.4720    5.9670   18.5050 C   0  0  0  0  0  0  0  0  0  0  0  0
    2.2580    4.6210   18.6620 N   0  0  0  0  0  0  0  0  0  0  0  0
    2.5090    3.5730   17.7790 C   0  0  0  0  0  0  0  0  0  0  0  0
    2.2100    2.3170   18.1550 C   0  0  0  0  0  0  0  0  0  0  0  0
    1.6360    2.0940   19.4740 C   0  0  0  0  0  0  0  0  0  0  0  0
    1.3970    3.1150   20.3220 C   0  0  0  0  0  0  0  0  0  0  0  0
    1.7090    4.4480   19.9280 C   0  0  0  0  0  0  0  0  0  0  0  0
    1.5740    5.5970   20.5540 N   0  0  0  0  0  0  0  0  0  0  0  0
    2.8930    6.3800   17.6010 H   0  0  0  0  0  0  0  0  0  0  0  0
    2.9380    3.8200   16.8170 H   0  0  0  0  0  0  0  0  0  0  0  0
    2.3840    1.4650   17.5060 H   0  0  0  0  0  0  0  0  0  0  0  0
    1.4040    1.0730   19.7600 H   0  0  0  0  0  0  0  0  0  0  0  0
    0.9710    2.9530   21.3050 H   0  0  0  0  0  0  0  0  0  0  0  0
  1  2  1  0  0  0  0
  2  3  2  0  0  0  0
  2  4  1  0  0  0  0
  4  8  1  0  0  0  0
  5  9  1  1  0  0  0
  5  4  1  0  0  0  0
  6 10  1  6  0  0  0
  6  1  1  0  0  0  0
  6  5  1  0  0  0  0
  7  4  1  0  0  0  0
 11 15  2  0  0  0  0
 11  6  1  0  0  0  0
 12 11  1  0  0  0  0
 13 12  2  0  0  0  0
 13 14  1  0  0  0  0
 14 15  1  0  0  0  0
 15 17  1  0  0  0  0
 16 12  1  0  0  0  0
 18 14  1  0  0  0  0
 18 21  1  0  0  0  0
 18 20  1  0  0  0  0
 19 18  1  0  0  0  0
 22 24  1  0  0  0  0
 22  1  1  0  0  0  0
 23 22  1  0  0  0  0
 25 27  1  0  0  0  0
 25 22  1  0  0  0  0
 26 25  1  0  0  0  0
 28 25  1  0  0  0  0
 29 28  1  0  0  0  0
 29 31  1  0  0  0  0
 30 29  1  0  0  0  0
 32 29  1  0  0  0  0
 33  5  1  0  0  0  0
 33 34  1  0  0  0  0
 35 33  1  0  0  0  0
 36 37  1  0  0  0  0
 36 33  1  0  0  0  0
 38 40  1  0  0  0  0
 38 36  1  0  0  0  0
 39 38  1  0  0  0  0
 41 38  1  0  0  0  0
 41 49  1  0  0  0  0
 42 43  1  0  0  0  0
 42 41  2  0  0  0  0
 43 48  1  0  0  0  0
 44 45  2  0  0  0  0
 44 43  1  0  0  0  0
 45 46  1  0  0  0  0
 46 53  1  0  0  0  0
 46 47  2  0  0  0  0
 47 54  1  0  0  0  0
 48 47  1  0  0  0  0
 48 49  2  0  0  0  0
 50 42  1  0  0  0  0
 51 44  1  0  0  0  0
 52 45  1  0  0  0  0
M  END
>  <MODEL>
10

>  <REMARK>
 VINA RESULT:    -6.342      3.687      8.277
 INTER + INTRA:         -10.630
 INTER:                  -9.464
 INTRA:                  -1.166
 UNBOUND:                -0.951
  Name = 
  10 active torsions:
  status: ('A' for Active; 'I' for Inactive)
    1  A    between atoms: C_1  and  O_2
    2  A    between atoms: O_2  and  C_3
    3  A    between atoms: C_3  and  C_4
    4  A    between atoms: C_4  and  N_5
    5  A    between atoms: C_9  and  C_10
    6  A    between atoms: C_10  and  N_11
    7  A    between atoms: N_11  and  C_12
    8  A    between atoms: C_12  and  C_13
    9  A    between atoms: C_22  and  C_23
   10  A    between atoms: N_26  and  C_27
                            x       y       z     vdW  Elec       q    Type
                         _______ _______ _______ _____ _____    ______ ____

>  <TORSDO>
F 10

$$$$
=
 OpenBabel07192307433D

 54 57  0  0  1  0  0  0  0  0999 V2000
    3.1410    3.2280   18.6430 N   0  0  0  0  0  0  0  0  0  0  0  0
    1.8140    3.1160   18.2440 C   0  0  0  0  0  0  0  0  0  0  0  0
    1.1400    2.0970   18.2120 O   0  0  0  0  0  0  0  0  0  0  0  0
    1.2850    4.4940   17.9330 C   0  0  0  0  0  0  0  0  0  0  0  0
    2.5490    5.3540   17.8800 C   0  0  2  0  0  0  0  0  0  0  0  0
    3.5140    4.6200   18.8170 C   0  0  2  0  0  0  0  0  0  0  0  0
    0.5950    4.7810   18.7320 H   0  0  0  0  0  0  0  0  0  0  0  0
    0.7620    4.4940   16.9730 H   0  0  0  0  0  0  0  0  0  0  0  0
    2.9240    5.3050   16.8460 H   0  0  0  0  0  0  0  0  0  0  0  0
    3.3050    4.8630   19.8660 H   0  0  0  0  0  0  0  0  0  0  0  0
    4.9540    4.8690   18.5170 C   0  0  0  0  0  0  0  0  0  0  0  0
    5.6550    4.6730   17.3030 C   0  0  0  0  0  0  0  0  0  0  0  0
    6.9390    5.0290   17.3840 N   0  0  0  0  0  0  0  0  0  0  0  0
    7.0710    5.4570   18.6500 N   0  0  0  0  0  0  0  0  0  0  0  0
    5.9160    5.3780   19.3710 C   0  0  0  0  0  0  0  0  0  0  0  0
    5.2780    4.2780   16.3660 H   0  0  0  0  0  0  0  0  0  0  0  0
    5.8640    5.6940   20.4030 H   0  0  0  0  0  0  0  0  0  0  0  0
    8.3480    5.9470   19.1050 C   0  0  0  0  0  0  0  0  0  0  0  0
    8.9480    5.0950   19.4340 H   0  0  0  0  0  0  0  0  0  0  0  0
    8.1960    6.6390   19.9380 H   0  0  0  0  0  0  0  0  0  0  0  0
    8.8340    6.4630   18.2730 H   0  0  0  0  0  0  0  0  0  0  0  0
    3.8490    2.1180   19.2760 C   0  0  0  0  0  0  0  0  0  0  0  0
    4.8760    2.1120   18.8960 H   0  0  0  0  0  0  0  0  0  0  0  0
    3.3880    1.1780   18.9530 H   0  0  0  0  0  0  0  0  0  0  0  0
    3.8790    2.1950   20.8100 C   0  0  0  0  0  0  0  0  0  0  0  0
    4.4400    3.0820   21.1320 H   0  0  0  0  0  0  0  0  0  0  0  0
    4.4120    1.3320   21.2160 H   0  0  0  0  0  0  0  0  0  0  0  0
    2.5830    2.1940   21.4130 O   0  0  0  0  0  0  0  0  0  0  0  0
    2.1840    3.4720   21.8870 C   0  0  0  0  0  0  0  0  0  0  0  0
    1.7950    4.0780   21.0620 H   0  0  0  0  0  0  0  0  0  0  0  0
    1.4320    3.3930   22.6740 H   0  0  0  0  0  0  0  0  0  0  0  0
    3.0630    3.9740   22.2990 H   0  0  0  0  0  0  0  0  0  0  0  0
    2.3410    6.8360   18.2140 C   0  0  0  0  0  0  0  0  0  0  0  0
    1.2950    7.0910   18.0070 H   0  0  0  0  0  0  0  0  0  0  0  0
    2.9620    7.4280   17.5330 H   0  0  0  0  0  0  0  0  0  0  0  0
    2.6760    7.1670   19.6040 N   0  0  0  0  0  0  0  0  0  0  0  0
    3.4060    6.5380   19.9380 H   0  0  0  0  0  0  0  0  0  0  0  0
    1.5150    7.0070   20.4950 C   0  0  0  0  0  0  0  0  0  0  0  0
    0.7500    6.4330   19.9580 H   0  0  0  0  0  0  0  0  0  0  0  0
    1.7730    6.4220   21.3850 H   0  0  0  0  0  0  0  0  0  0  0  0
    0.9460    8.3360   20.8750 C   0  0  0  0  0  0  0  0  0  0  0  0
    1.0640    9.5460   20.2190 C   0  0  0  0  0  0  0  0  0  0  0  0
    0.3780   10.4550   20.9840 N   0  0  0  0  0  0  0  0  0  0  0  0
    0.1840   11.8190   20.7810 C   0  0  0  0  0  0  0  0  0  0  0  0
   -0.5320   12.5180   21.6800 C   0  0  0  0  0  0  0  0  0  0  0  0
   -1.0830   11.8230   22.8350 C   0  0  0  0  0  0  0  0  0  0  0  0
   -0.8900   10.5020   23.0220 C   0  0  0  0  0  0  0  0  0  0  0  0
   -0.1300    9.7580   22.0750 C   0  0  0  0  0  0  0  0  0  0  0  0
    0.2000    8.4840   22.0270 N   0  0  0  0  0  0  0  0  0  0  0  0
    1.5650    9.8270   19.3050 H   0  0  0  0  0  0  0  0  0  0  0  0
    0.6250   12.2630   19.8980 H   0  0  0  0  0  0  0  0  0  0  0  0
   -0.7130   13.5810   21.5700 H   0  0  0  0  0  0  0  0  0  0  0  0
   -1.6600   12.4040   23.5480 H   0  0  0  0  0  0  0  0  0  0  0  0
   -1.2990    9.9810   23.8800 H   0  0  0  0  0  0  0  0  0  0  0  0
  1  6  1  0  0  0  0
  1 22  1  0  0  0  0
  2  1  1  0  0  0  0
  3  2  2  0  0  0  0
  4  2  1  0  0  0  0
  4  7  1  0  0  0  0
  5  9  1  6  0  0  0
  5  4  1  0  0  0  0
  5 33  1  0  0  0  0
  5  6  1  0  0  0  0
  6 10  1  1  0  0  0
  8  4  1  0  0  0  0
 11  6  1  0  0  0  0
 11 15  2  0  0  0  0
 12 13  2  0  0  0  0
 12 11  1  0  0  0  0
 13 14  1  0  0  0  0
 14 18  1  0  0  0  0
 14 15  1  0  0  0  0
 15 17  1  0  0  0  0
 16 12  1  0  0  0  0
 18 19  1  0  0  0  0
 18 20  1  0  0  0  0
 21 18  1  0  0  0  0
 22 25  1  0  0  0  0
 23 22  1  0  0  0  0
 24 22  1  0  0  0  0
 25 26  1  0  0  0  0
 25 27  1  0  0  0  0
 25 28  1  0  0  0  0
 28 29  1  0  0  0  0
 29 32  1  0  0  0  0
 29 31  1  0  0  0  0
 30 29  1  0  0  0  0
 33 36  1  0  0  0  0
 34 33  1  0  0  0  0
 35 33  1  0  0  0  0
 36 37  1  0  0  0  0
 36 38  1  0  0  0  0
 38 41  1  0  0  0  0
 38 40  1  0  0  0  0
 39 38  1  0  0  0  0
 41 49  1  0  0  0  0
 42 41  2  0  0  0  0
 42 43  1  0  0  0  0
 43 48  1  0  0  0  0
 44 43  1  0  0  0  0
 44 45  2  0  0  0  0
 45 46  1  0  0  0  0
 46 47  2  0  0  0  0
 46 53  1  0  0  0  0
 47 54  1  0  0  0  0
 48 47  1  0  0  0  0
 49 48  2  0  0  0  0
 50 42  1  0  0  0  0
 51 44  1  0  0  0  0
 52 45  1  0  0  0  0
M  END
>  <MODEL>
11

>  <REMARK>
 VINA RESULT:    -6.281      1.624      2.497
 INTER + INTRA:         -10.537
 INTER:                  -9.661
 INTRA:                  -0.875
 UNBOUND:                -0.951
  Name = 
  10 active torsions:
  status: ('A' for Active; 'I' for Inactive)
    1  A    between atoms: C_1  and  O_2
    2  A    between atoms: O_2  and  C_3
    3  A    between atoms: C_3  and  C_4
    4  A    between atoms: C_4  and  N_5
    5  A    between atoms: C_9  and  C_10
    6  A    between atoms: C_10  and  N_11
    7  A    between atoms: N_11  and  C_12
    8  A    between atoms: C_12  and  C_13
    9  A    between atoms: C_22  and  C_23
   10  A    between atoms: N_26  and  C_27
                            x       y       z     vdW  Elec       q    Type
                         _______ _______ _______ _____ _____    ______ ____

>  <TORSDO>
F 10

$$$$
=
 OpenBabel07192307433D

 54 57  0  0  1  0  0  0  0  0999 V2000
    4.4490    5.2340   16.7420 N   0  0  0  0  0  0  0  0  0  0  0  0
    4.6250    6.6110   16.6510 C   0  0  0  0  0  0  0  0  0  0  0  0
    5.2530    7.2160   15.7960 O   0  0  0  0  0  0  0  0  0  0  0  0
    3.8280    7.2730   17.7470 C   0  0  0  0  0  0  0  0  0  0  0  0
    3.4520    6.1080   18.6650 C   0  0  2  0  0  0  0  0  0  0  0  0
    3.4220    4.9060   17.7130 C   0  0  2  0  0  0  0  0  0  0  0  0
    2.9650    7.7640   17.2900 H   0  0  0  0  0  0  0  0  0  0  0  0
    4.4400    8.0110   18.2710 H   0  0  0  0  0  0  0  0  0  0  0  0
    4.2760    5.9910   19.3850 H   0  0  0  0  0  0  0  0  0  0  0  0
    2.4770    4.8690   17.1560 H   0  0  0  0  0  0  0  0  0  0  0  0
    3.6660    3.5970   18.3850 C   0  0  0  0  0  0  0  0  0  0  0  0
    3.1830    2.3140   18.0310 C   0  0  0  0  0  0  0  0  0  0  0  0
    3.6260    1.3520   18.8440 N   0  0  0  0  0  0  0  0  0  0  0  0
    4.3970    2.0110   19.7240 N   0  0  0  0  0  0  0  0  0  0  0  0
    4.4510    3.3550   19.4970 C   0  0  0  0  0  0  0  0  0  0  0  0
    2.5200    2.0480   17.2150 H   0  0  0  0  0  0  0  0  0  0  0  0
    5.0390    4.0150   20.1180 H   0  0  0  0  0  0  0  0  0  0  0  0
    5.0720    1.2770   20.7650 C   0  0  0  0  0  0  0  0  0  0  0  0
    6.1350    1.5260   20.7300 H   0  0  0  0  0  0  0  0  0  0  0  0
    4.9370    0.2050   20.6000 H   0  0  0  0  0  0  0  0  0  0  0  0
    4.6390    1.5650   21.7260 H   0  0  0  0  0  0  0  0  0  0  0  0
    4.8580    4.3360   15.6650 C   0  0  0  0  0  0  0  0  0  0  0  0
    4.8910    4.9150   14.7360 H   0  0  0  0  0  0  0  0  0  0  0  0
    4.0840    3.5720   15.5320 H   0  0  0  0  0  0  0  0  0  0  0  0
    6.2250    3.6740   15.8950 C   0  0  0  0  0  0  0  0  0  0  0  0
    6.5210    3.1010   15.0070 H   0  0  0  0  0  0  0  0  0  0  0  0
    6.1570    2.9550   16.7150 H   0  0  0  0  0  0  0  0  0  0  0  0
    7.2590    4.5960   16.2460 O   0  0  0  0  0  0  0  0  0  0  0  0
    7.6230    4.5350   17.6170 C   0  0  0  0  0  0  0  0  0  0  0  0
    7.8730    3.5070   17.8980 H   0  0  0  0  0  0  0  0  0  0  0  0
    8.4640    5.1940   17.8410 H   0  0  0  0  0  0  0  0  0  0  0  0
    6.7650    4.8570   18.2130 H   0  0  0  0  0  0  0  0  0  0  0  0
    2.1670    6.3090   19.4770 C   0  0  0  0  0  0  0  0  0  0  0  0
    2.2000    5.6370   20.3420 H   0  0  0  0  0  0  0  0  0  0  0  0
    1.3200    5.9990   18.8540 H   0  0  0  0  0  0  0  0  0  0  0  0
    1.9750    7.6950   19.9210 N   0  0  0  0  0  0  0  0  0  0  0  0
    2.8840    8.1360   20.0630 H   0  0  0  0  0  0  0  0  0  0  0  0
    1.2480    7.7590   21.1990 C   0  0  0  0  0  0  0  0  0  0  0  0
    0.5940    6.8810   21.2640 H   0  0  0  0  0  0  0  0  0  0  0  0
    1.9350    7.6970   22.0510 H   0  0  0  0  0  0  0  0  0  0  0  0
    0.4100    8.9950   21.2760 C   0  0  0  0  0  0  0  0  0  0  0  0
   -0.0310    9.8040   20.2470 C   0  0  0  0  0  0  0  0  0  0  0  0
   -0.7450   10.8120   20.8440 N   0  0  0  0  0  0  0  0  0  0  0  0
   -1.4020   11.8960   20.2680 C   0  0  0  0  0  0  0  0  0  0  0  0
   -2.0430   12.7700   21.0640 C   0  0  0  0  0  0  0  0  0  0  0  0
   -2.0290   12.5520   22.5040 C   0  0  0  0  0  0  0  0  0  0  0  0
   -1.3910   11.4980   23.0520 C   0  0  0  0  0  0  0  0  0  0  0  0
   -0.7080   10.5720   22.2130 C   0  0  0  0  0  0  0  0  0  0  0  0
   -0.0200    9.4850   22.4920 N   0  0  0  0  0  0  0  0  0  0  0  0
    0.1020    9.7510   19.1770 H   0  0  0  0  0  0  0  0  0  0  0  0
   -1.3670   11.9890   19.1900 H   0  0  0  0  0  0  0  0  0  0  0  0
   -2.5700   13.6310   20.6670 H   0  0  0  0  0  0  0  0  0  0  0  0
   -2.5540   13.2670   23.1290 H   0  0  0  0  0  0  0  0  0  0  0  0
   -1.3800   11.3320   24.1230 H   0  0  0  0  0  0  0  0  0  0  0  0
  1  6  1  0  0  0  0
  2  1  1  0  0  0  0
  2  4  1  0  0  0  0
  3  2  2  0  0  0  0
  4  8  1  0  0  0  0
  4  5  1  0  0  0  0
  5  9  1  1  0  0  0
  5 33  1  0  0  0  0
  6 10  1  6  0  0  0
  6 11  1  0  0  0  0
  6  5  1  0  0  0  0
  7  4  1  0  0  0  0
 11 15  2  0  0  0  0
 12 11  1  0  0  0  0
 12 13  2  0  0  0  0
 13 14  1  0  0  0  0
 14 18  1  0  0  0  0
 15 14  1  0  0  0  0
 15 17  1  0  0  0  0
 16 12  1  0  0  0  0
 18 21  1  0  0  0  0
 19 18  1  0  0  0  0
 20 18  1  0  0  0  0
 22 25  1  0  0  0  0
 22  1  1  0  0  0  0
 23 22  1  0  0  0  0
 24 22  1  0  0  0  0
 25 28  1  0  0  0  0
 25 27  1  0  0  0  0
 26 25  1  0  0  0  0
 28 29  1  0  0  0  0
 29 31  1  0  0  0  0
 29 30  1  0  0  0  0
 29 32  1  0  0  0  0
 33 36  1  0  0  0  0
 33 34  1  0  0  0  0
 35 33  1  0  0  0  0
 36 37  1  0  0  0  0
 36 38  1  0  0  0  0
 38 39  1  0  0  0  0
 38 41  1  0  0  0  0
 38 40  1  0  0  0  0
 41 49  1  0  0  0  0
 42 43  1  0  0  0  0
 42 41  2  0  0  0  0
 43 48  1  0  0  0  0
 44 43  1  0  0  0  0
 44 45  2  0  0  0  0
 45 46  1  0  0  0  0
 46 47  2  0  0  0  0
 46 53  1  0  0  0  0
 47 54  1  0  0  0  0
 48 49  2  0  0  0  0
 48 47  1  0  0  0  0
 50 42  1  0  0  0  0
 51 44  1  0  0  0  0
 52 45  1  0  0  0  0
M  END
>  <MODEL>
12

>  <REMARK>
 VINA RESULT:    -6.196      2.166      3.755
 INTER + INTRA:         -10.407
 INTER:                  -9.682
 INTRA:                  -0.726
 UNBOUND:                -0.951
  Name = 
  10 active torsions:
  status: ('A' for Active; 'I' for Inactive)
    1  A    between atoms: C_1  and  O_2
    2  A    between atoms: O_2  and  C_3
    3  A    between atoms: C_3  and  C_4
    4  A    between atoms: C_4  and  N_5
    5  A    between atoms: C_9  and  C_10
    6  A    between atoms: C_10  and  N_11
    7  A    between atoms: N_11  and  C_12
    8  A    between atoms: C_12  and  C_13
    9  A    between atoms: C_22  and  C_23
   10  A    between atoms: N_26  and  C_27
                            x       y       z     vdW  Elec       q    Type
                         _______ _______ _______ _____ _____    ______ ____

>  <TORSDO>
F 10

$$$$
=
 OpenBabel07192307433D

 54 57  0  0  1  0  0  0  0  0999 V2000
    3.1790    3.6430   18.0590 N   0  0  0  0  0  0  0  0  0  0  0  0
    1.8200    3.8890   18.2180 C   0  0  0  0  0  0  0  0  0  0  0  0
    0.9440    3.0650   18.4350 O   0  0  0  0  0  0  0  0  0  0  0  0
    1.5900    5.3790   18.1730 C   0  0  0  0  0  0  0  0  0  0  0  0
    2.9160    5.9250   17.6400 C   0  0  2  0  0  0  0  0  0  0  0  0
    3.9380    4.8790   18.1000 C   0  0  2  0  0  0  0  0  0  0  0  0
    1.3550    5.7170   19.1860 H   0  0  0  0  0  0  0  0  0  0  0  0
    0.7620    5.6170   17.5010 H   0  0  0  0  0  0  0  0  0  0  0  0
    2.8460    5.9180   16.5420 H   0  0  0  0  0  0  0  0  0  0  0  0
    4.2120    5.0330   19.1510 H   0  0  0  0  0  0  0  0  0  0  0  0
    5.1680    4.8250   17.2590 C   0  0  0  0  0  0  0  0  0  0  0  0
    6.5170    4.6850   17.6650 C   0  0  0  0  0  0  0  0  0  0  0  0
    7.3660    4.6460   16.6360 N   0  0  0  0  0  0  0  0  0  0  0  0
    6.5680    4.7580   15.5620 N   0  0  0  0  0  0  0  0  0  0  0  0
    5.2470    4.8720   15.8790 C   0  0  0  0  0  0  0  0  0  0  0  0
    6.9110    4.6180   18.6730 H   0  0  0  0  0  0  0  0  0  0  0  0
    4.4830    4.9620   15.1190 H   0  0  0  0  0  0  0  0  0  0  0  0
    7.1470    4.7360   14.2410 C   0  0  0  0  0  0  0  0  0  0  0  0
    7.8540    3.9050   14.1880 H   0  0  0  0  0  0  0  0  0  0  0  0
    7.6690    5.6790   14.0580 H   0  0  0  0  0  0  0  0  0  0  0  0
    6.3420    4.6050   13.5140 H   0  0  0  0  0  0  0  0  0  0  0  0
    3.7590    2.3300   18.3340 C   0  0  0  0  0  0  0  0  0  0  0  0
    4.6350    2.2060   17.6880 H   0  0  0  0  0  0  0  0  0  0  0  0
    3.0380    1.5600   18.0390 H   0  0  0  0  0  0  0  0  0  0  0  0
    4.1800    2.1320   19.7980 C   0  0  0  0  0  0  0  0  0  0  0  0
    5.2730    2.1790   19.8860 H   0  0  0  0  0  0  0  0  0  0  0  0
    3.8880    1.1360   20.1380 H   0  0  0  0  0  0  0  0  0  0  0  0
    3.5790    3.0630   20.7010 O   0  0  0  0  0  0  0  0  0  0  0  0
    2.5640    2.4860   21.5090 C   0  0  0  0  0  0  0  0  0  0  0  0
    1.6030    2.9740   21.3170 H   0  0  0  0  0  0  0  0  0  0  0  0
    2.4750    1.4120   21.3380 H   0  0  0  0  0  0  0  0  0  0  0  0
    2.8300    2.6470   22.5570 H   0  0  0  0  0  0  0  0  0  0  0  0
    3.2430    7.3620   18.0620 C   0  0  0  0  0  0  0  0  0  0  0  0
    3.6290    7.8980   17.1870 H   0  0  0  0  0  0  0  0  0  0  0  0
    4.0500    7.3230   18.8030 H   0  0  0  0  0  0  0  0  0  0  0  0
    2.0900    8.0770   18.6230 N   0  0  0  0  0  0  0  0  0  0  0  0
    1.3020    7.4350   18.7110 H   0  0  0  0  0  0  0  0  0  0  0  0
    1.6630    9.1840   17.7510 C   0  0  0  0  0  0  0  0  0  0  0  0
    2.4070    9.2980   16.9550 H   0  0  0  0  0  0  0  0  0  0  0  0
    0.7110    8.9570   17.2570 H   0  0  0  0  0  0  0  0  0  0  0  0
    1.5740   10.4640   18.5190 C   0  0  0  0  0  0  0  0  0  0  0  0
    0.8600   10.7320   19.6710 C   0  0  0  0  0  0  0  0  0  0  0  0
    1.0980   12.0520   19.9590 N   0  0  0  0  0  0  0  0  0  0  0  0
    0.6200   12.8310   21.0100 C   0  0  0  0  0  0  0  0  0  0  0  0
    0.9920   14.1210   21.0890 C   0  0  0  0  0  0  0  0  0  0  0  0
    1.8840   14.6600   20.0710 C   0  0  0  0  0  0  0  0  0  0  0  0
    2.3410   13.8970   19.0580 C   0  0  0  0  0  0  0  0  0  0  0  0
    1.9490   12.5310   18.9690 C   0  0  0  0  0  0  0  0  0  0  0  0
    2.2450   11.5920   18.0960 N   0  0  0  0  0  0  0  0  0  0  0  0
    0.2220   10.1160   20.2870 H   0  0  0  0  0  0  0  0  0  0  0  0
   -0.0390   12.3580   21.7270 H   0  0  0  0  0  0  0  0  0  0  0  0
    0.6490   14.7720   21.8860 H   0  0  0  0  0  0  0  0  0  0  0  0
    2.1740   15.7030   20.1530 H   0  0  0  0  0  0  0  0  0  0  0  0
    3.0060   14.2940   18.3000 H   0  0  0  0  0  0  0  0  0  0  0  0
  1  6  1  0  0  0  0
  1  2  1  0  0  0  0
  1 22  1  0  0  0  0
  2  3  2  0  0  0  0
  4  2  1  0  0  0  0
  4  7  1  0  0  0  0
  5  9  1  6  0  0  0
  5 33  1  0  0  0  0
  5  6  1  0  0  0  0
  5  4  1  0  0  0  0
  6 10  1  1  0  0  0
  8  4  1  0  0  0  0
 11 12  1  0  0  0  0
 11  6  1  0  0  0  0
 12 16  1  0  0  0  0
 13 12  2  0  0  0  0
 14 15  1  0  0  0  0
 14 13  1  0  0  0  0
 15 11  2  0  0  0  0
 17 15  1  0  0  0  0
 18 14  1  0  0  0  0
 19 18  1  0  0  0  0
 20 18  1  0  0  0  0
 21 18  1  0  0  0  0
 22 25  1  0  0  0  0
 23 22  1  0  0  0  0
 24 22  1  0  0  0  0
 25 26  1  0  0  0  0
 25 27  1  0  0  0  0
 25 28  1  0  0  0  0
 28 29  1  0  0  0  0
 29 32  1  0  0  0  0
 30 29  1  0  0  0  0
 31 29  1  0  0  0  0
 33 36  1  0  0  0  0
 33 35  1  0  0  0  0
 34 33  1  0  0  0  0
 36 37  1  0  0  0  0
 38 41  1  0  0  0  0
 38 36  1  0  0  0  0
 39 38  1  0  0  0  0
 40 38  1  0  0  0  0
 41 42  2  0  0  0  0
 42 43  1  0  0  0  0
 42 50  1  0  0  0  0
 43 44  1  0  0  0  0
 44 45  2  0  0  0  0
 44 51  1  0  0  0  0
 45 52  1  0  0  0  0
 46 53  1  0  0  0  0
 46 45  1  0  0  0  0
 47 46  2  0  0  0  0
 48 47  1  0  0  0  0
 48 43  1  0  0  0  0
 49 41  1  0  0  0  0
 49 48  2  0  0  0  0
 54 47  1  0  0  0  0
M  END
>  <MODEL>
13

>  <REMARK>
 VINA RESULT:    -6.183      1.786      2.499
 INTER + INTRA:         -10.387
 INTER:                  -9.708
 INTRA:                  -0.679
 UNBOUND:                -0.951
  Name = 
  10 active torsions:
  status: ('A' for Active; 'I' for Inactive)
    1  A    between atoms: C_1  and  O_2
    2  A    between atoms: O_2  and  C_3
    3  A    between atoms: C_3  and  C_4
    4  A    between atoms: C_4  and  N_5
    5  A    between atoms: C_9  and  C_10
    6  A    between atoms: C_10  and  N_11
    7  A    between atoms: N_11  and  C_12
    8  A    between atoms: C_12  and  C_13
    9  A    between atoms: C_22  and  C_23
   10  A    between atoms: N_26  and  C_27
                            x       y       z     vdW  Elec       q    Type
                         _______ _______ _______ _____ _____    ______ ____

>  <TORSDO>
F 10

$$$$
=
 OpenBabel07192307433D

 54 57  0  0  1  0  0  0  0  0999 V2000
   -0.7670   12.2680   19.3360 N   0  0  0  0  0  0  0  0  0  0  0  0
    0.4940   12.7350   19.6900 C   0  0  0  0  0  0  0  0  0  0  0  0
    0.7610   13.8100   20.2060 O   0  0  0  0  0  0  0  0  0  0  0  0
    1.5050   11.6500   19.4150 C   0  0  0  0  0  0  0  0  0  0  0  0
    0.7260   10.6470   18.5630 C   0  0  2  0  0  0  0  0  0  0  0  0
   -0.7240   10.8530   19.0150 C   0  0  2  0  0  0  0  0  0  0  0  0
    1.8350   11.2440   20.3750 H   0  0  0  0  0  0  0  0  0  0  0  0
    2.3610   12.0560   18.8710 H   0  0  0  0  0  0  0  0  0  0  0  0
    0.8380   10.9650   17.5150 H   0  0  0  0  0  0  0  0  0  0  0  0
   -0.9230   10.3220   19.9540 H   0  0  0  0  0  0  0  0  0  0  0  0
   -1.7370   10.4670   17.9910 C   0  0  0  0  0  0  0  0  0  0  0  0
   -2.8960    9.6680   18.1450 C   0  0  0  0  0  0  0  0  0  0  0  0
   -3.5970    9.5500   17.0150 N   0  0  0  0  0  0  0  0  0  0  0  0
   -2.8930   10.2730   16.1280 N   0  0  0  0  0  0  0  0  0  0  0  0
   -1.7720   10.8390   16.6590 C   0  0  0  0  0  0  0  0  0  0  0  0
   -3.2500    9.1630   19.0370 H   0  0  0  0  0  0  0  0  0  0  0  0
   -1.1100   11.4560   16.0690 H   0  0  0  0  0  0  0  0  0  0  0  0
   -3.3690   10.3920   14.7720 C   0  0  0  0  0  0  0  0  0  0  0  0
   -2.5060   10.4770   14.1090 H   0  0  0  0  0  0  0  0  0  0  0  0
   -3.9950   11.2840   14.6840 H   0  0  0  0  0  0  0  0  0  0  0  0
   -3.9530    9.5000   14.5330 H   0  0  0  0  0  0  0  0  0  0  0  0
   -1.9860   12.9680   19.7380 C   0  0  0  0  0  0  0  0  0  0  0  0
   -2.7120   12.8740   18.9230 H   0  0  0  0  0  0  0  0  0  0  0  0
   -1.7600   14.0350   19.8380 H   0  0  0  0  0  0  0  0  0  0  0  0
   -2.6110   12.4310   21.0340 C   0  0  0  0  0  0  0  0  0  0  0  0
   -2.7580   11.3460   20.9610 H   0  0  0  0  0  0  0  0  0  0  0  0
   -3.6030   12.8660   21.1760 H   0  0  0  0  0  0  0  0  0  0  0  0
   -1.8580   12.7420   22.2080 O   0  0  0  0  0  0  0  0  0  0  0  0
   -1.3970   11.5910   22.9010 C   0  0  0  0  0  0  0  0  0  0  0  0
   -1.2310   11.8260   23.9580 H   0  0  0  0  0  0  0  0  0  0  0  0
   -2.0980   10.7590   22.8120 H   0  0  0  0  0  0  0  0  0  0  0  0
   -0.4430   11.2870   22.4610 H   0  0  0  0  0  0  0  0  0  0  0  0
    1.2200    9.1990   18.6510 C   0  0  0  0  0  0  0  0  0  0  0  0
    0.3540    8.5500   18.8240 H   0  0  0  0  0  0  0  0  0  0  0  0
    1.8720    9.1150   19.5280 H   0  0  0  0  0  0  0  0  0  0  0  0
    1.9450    8.7620   17.4510 N   0  0  0  0  0  0  0  0  0  0  0  0
    1.3250    8.2050   16.8630 H   0  0  0  0  0  0  0  0  0  0  0  0
    3.1030    7.9200   17.7940 C   0  0  0  0  0  0  0  0  0  0  0  0
    3.6160    7.6500   16.8630 H   0  0  0  0  0  0  0  0  0  0  0  0
    3.8300    8.4720   18.4000 H   0  0  0  0  0  0  0  0  0  0  0  0
    2.6680    6.6700   18.4880 C   0  0  0  0  0  0  0  0  0  0  0  0
    2.6540    6.3930   19.8410 C   0  0  0  0  0  0  0  0  0  0  0  0
    2.1850    5.1090   19.9560 N   0  0  0  0  0  0  0  0  0  0  0  0
    1.9780    4.3380   21.0970 C   0  0  0  0  0  0  0  0  0  0  0  0
    1.5070    3.0860   20.9630 C   0  0  0  0  0  0  0  0  0  0  0  0
    1.2280    2.5780   19.6270 C   0  0  0  0  0  0  0  0  0  0  0  0
    1.4310    3.3330   18.5280 C   0  0  0  0  0  0  0  0  0  0  0  0
    1.9320    4.6580   18.6650 C   0  0  0  0  0  0  0  0  0  0  0  0
    2.2150    5.5810   17.7700 N   0  0  0  0  0  0  0  0  0  0  0  0
    2.9330    6.9820   20.7030 H   0  0  0  0  0  0  0  0  0  0  0  0
    2.2090    4.7870   22.0550 H   0  0  0  0  0  0  0  0  0  0  0  0
    1.3290    2.4430   21.8180 H   0  0  0  0  0  0  0  0  0  0  0  0
    0.8460    1.5660   19.5400 H   0  0  0  0  0  0  0  0  0  0  0  0
    1.2230    2.9580   17.5320 H   0  0  0  0  0  0  0  0  0  0  0  0
  1  2  1  0  0  0  0
  1 22  1  0  0  0  0
  2  3  2  0  0  0  0
  4  2  1  0  0  0  0
  4  7  1  0  0  0  0
  5  9  1  6  0  0  0
  5 33  1  0  0  0  0
  5  6  1  0  0  0  0
  5  4  1  0  0  0  0
  6  1  1  0  0  0  0
  6 10  1  1  0  0  0
  8  4  1  0  0  0  0
 11 12  1  0  0  0  0
 11  6  1  0  0  0  0
 12 16  1  0  0  0  0
 13 12  2  0  0  0  0
 14 15  1  0  0  0  0
 14 13  1  0  0  0  0
 15 11  2  0  0  0  0
 17 15  1  0  0  0  0
 18 14  1  0  0  0  0
 19 18  1  0  0  0  0
 20 18  1  0  0  0  0
 21 18  1  0  0  0  0
 22 24  1  0  0  0  0
 22 25  1  0  0  0  0
 23 22  1  0  0  0  0
 25 27  1  0  0  0  0
 25 28  1  0  0  0  0
 26 25  1  0  0  0  0
 28 29  1  0  0  0  0
 29 30  1  0  0  0  0
 31 29  1  0  0  0  0
 32 29  1  0  0  0  0
 33 34  1  0  0  0  0
 33 35  1  0  0  0  0
 36 38  1  0  0  0  0
 36 33  1  0  0  0  0
 37 36  1  0  0  0  0
 38 40  1  0  0  0  0
 38 41  1  0  0  0  0
 39 38  1  0  0  0  0
 41 42  2  0  0  0  0
 42 43  1  0  0  0  0
 42 50  1  0  0  0  0
 43 44  1  0  0  0  0
 44 51  1  0  0  0  0
 45 44  2  0  0  0  0
 45 52  1  0  0  0  0
 46 45  1  0  0  0  0
 47 48  1  0  0  0  0
 47 46  2  0  0  0  0
 48 43  1  0  0  0  0
 49 41  1  0  0  0  0
 49 48  2  0  0  0  0
 53 46  1  0  0  0  0
 54 47  1  0  0  0  0
M  END
>  <MODEL>
14

>  <REMARK>
 VINA RESULT:    -6.145      3.934      8.438
 INTER + INTRA:         -10.330
 INTER:                  -9.321
 INTRA:                  -1.009
 UNBOUND:                -0.951
  Name = 
  10 active torsions:
  status: ('A' for Active; 'I' for Inactive)
    1  A    between atoms: C_1  and  O_2
    2  A    between atoms: O_2  and  C_3
    3  A    between atoms: C_3  and  C_4
    4  A    between atoms: C_4  and  N_5
    5  A    between atoms: C_9  and  C_10
    6  A    between atoms: C_10  and  N_11
    7  A    between atoms: N_11  and  C_12
    8  A    between atoms: C_12  and  C_13
    9  A    between atoms: C_22  and  C_23
   10  A    between atoms: N_26  and  C_27
                            x       y       z     vdW  Elec       q    Type
                         _______ _______ _______ _____ _____    ______ ____

>  <TORSDO>
F 10

$$$$
=
 OpenBabel07192307433D

 54 57  0  0  1  0  0  0  0  0999 V2000
    2.6730    3.2490   18.6630 N   0  0  0  0  0  0  0  0  0  0  0  0
    1.3650    2.9380   19.0180 C   0  0  0  0  0  0  0  0  0  0  0  0
    0.7500    1.9200   18.7360 O   0  0  0  0  0  0  0  0  0  0  0  0
    0.8320    4.0350   19.9050 C   0  0  0  0  0  0  0  0  0  0  0  0
    1.8600    5.1550   19.7400 C   0  0  2  0  0  0  0  0  0  0  0  0
    3.1520    4.4000   19.4060 C   0  0  2  0  0  0  0  0  0  0  0  0
    0.7690    3.6460   20.9250 H   0  0  0  0  0  0  0  0  0  0  0  0
   -0.1590    4.3500   19.5670 H   0  0  0  0  0  0  0  0  0  0  0  0
    1.5440    5.7540   18.8720 H   0  0  0  0  0  0  0  0  0  0  0  0
    3.6220    4.0020   20.3140 H   0  0  0  0  0  0  0  0  0  0  0  0
    4.1420    5.2080   18.6360 C   0  0  0  0  0  0  0  0  0  0  0  0
    3.9250    6.0480   17.5180 C   0  0  0  0  0  0  0  0  0  0  0  0
    5.0410    6.6450   17.0940 N   0  0  0  0  0  0  0  0  0  0  0  0
    5.9830    6.1930   17.9390 N   0  0  0  0  0  0  0  0  0  0  0  0
    5.4990    5.3290   18.8760 C   0  0  0  0  0  0  0  0  0  0  0  0
    2.9960    6.2410   16.9930 H   0  0  0  0  0  0  0  0  0  0  0  0
    6.1360    4.8880   19.6300 H   0  0  0  0  0  0  0  0  0  0  0  0
    7.3430    6.6480   17.7950 C   0  0  0  0  0  0  0  0  0  0  0  0
    7.9430    5.8250   17.3990 H   0  0  0  0  0  0  0  0  0  0  0  0
    7.7290    6.9530   18.7720 H   0  0  0  0  0  0  0  0  0  0  0  0
    7.3510    7.4970   17.1080 H   0  0  0  0  0  0  0  0  0  0  0  0
    3.5570    2.2630   18.0450 C   0  0  0  0  0  0  0  0  0  0  0  0
    4.3620    2.8030   17.5350 H   0  0  0  0  0  0  0  0  0  0  0  0
    2.9970    1.7270   17.2710 H   0  0  0  0  0  0  0  0  0  0  0  0
    4.1700    1.2690   19.0430 C   0  0  0  0  0  0  0  0  0  0  0  0
    4.9230    0.6470   18.5420 H   0  0  0  0  0  0  0  0  0  0  0  0
    3.4000    0.5850   19.4070 H   0  0  0  0  0  0  0  0  0  0  0  0
    4.7430    1.8900   20.1960 O   0  0  0  0  0  0  0  0  0  0  0  0
    5.3330    0.9640   21.0970 C   0  0  0  0  0  0  0  0  0  0  0  0
    5.4300    1.4130   22.0910 H   0  0  0  0  0  0  0  0  0  0  0  0
    4.7540    0.0410   21.1620 H   0  0  0  0  0  0  0  0  0  0  0  0
    6.3330    0.7190   20.7290 H   0  0  0  0  0  0  0  0  0  0  0  0
    1.9740    6.1130   20.9320 C   0  0  0  0  0  0  0  0  0  0  0  0
    2.8620    5.8360   21.5120 H   0  0  0  0  0  0  0  0  0  0  0  0
    1.1010    5.9570   21.5760 H   0  0  0  0  0  0  0  0  0  0  0  0
    2.0500    7.5240   20.5340 N   0  0  0  0  0  0  0  0  0  0  0  0
    3.0240    7.7780   20.3660 H   0  0  0  0  0  0  0  0  0  0  0  0
    1.5360    8.4130   21.5880 C   0  0  0  0  0  0  0  0  0  0  0  0
    0.9930    7.8000   22.3170 H   0  0  0  0  0  0  0  0  0  0  0  0
    2.3540    8.8940   22.1360 H   0  0  0  0  0  0  0  0  0  0  0  0
    0.6020    9.4320   21.0190 C   0  0  0  0  0  0  0  0  0  0  0  0
   -0.1090   10.4160   21.6780 C   0  0  0  0  0  0  0  0  0  0  0  0
   -0.8280   11.0710   20.7100 N   0  0  0  0  0  0  0  0  0  0  0  0
   -1.7100   12.1410   20.8310 C   0  0  0  0  0  0  0  0  0  0  0  0
   -2.3090   12.6220   19.7280 C   0  0  0  0  0  0  0  0  0  0  0  0
   -2.0130   12.0070   18.4410 C   0  0  0  0  0  0  0  0  0  0  0  0
   -1.1570   10.9710   18.3350 C   0  0  0  0  0  0  0  0  0  0  0  0
   -0.5220   10.4570   19.5010 C   0  0  0  0  0  0  0  0  0  0  0  0
    0.3350    9.4710   19.6650 N   0  0  0  0  0  0  0  0  0  0  0  0
   -0.1640   10.6930   22.7210 H   0  0  0  0  0  0  0  0  0  0  0  0
   -1.8770   12.5440   21.8220 H   0  0  0  0  0  0  0  0  0  0  0  0
   -3.0050   13.4530   19.7660 H   0  0  0  0  0  0  0  0  0  0  0  0
   -2.5050   12.4110   17.5620 H   0  0  0  0  0  0  0  0  0  0  0  0
   -0.9330   10.5120   17.3780 H   0  0  0  0  0  0  0  0  0  0  0  0
  1  2  1  0  0  0  0
  1  6  1  0  0  0  0
  2  4  1  0  0  0  0
  3  2  2  0  0  0  0
  4  7  1  0  0  0  0
  5  9  1  6  0  0  0
  5  4  1  0  0  0  0
  5 33  1  0  0  0  0
  6  5  1  0  0  0  0
  6 10  1  1  0  0  0
  8  4  1  0  0  0  0
 11 15  2  0  0  0  0
 11  6  1  0  0  0  0
 12 11  1  0  0  0  0
 13 12  2  0  0  0  0
 13 14  1  0  0  0  0
 14 15  1  0  0  0  0
 15 17  1  0  0  0  0
 16 12  1  0  0  0  0
 18 14  1  0  0  0  0
 18 20  1  0  0  0  0
 19 18  1  0  0  0  0
 21 18  1  0  0  0  0
 22  1  1  0  0  0  0
 22 25  1  0  0  0  0
 23 22  1  0  0  0  0
 24 22  1  0  0  0  0
 25 27  1  0  0  0  0
 25 28  1  0  0  0  0
 26 25  1  0  0  0  0
 28 29  1  0  0  0  0
 29 31  1  0  0  0  0
 29 30  1  0  0  0  0
 32 29  1  0  0  0  0
 33 34  1  0  0  0  0
 33 35  1  0  0  0  0
 36 33  1  0  0  0  0
 36 38  1  0  0  0  0
 37 36  1  0  0  0  0
 38 40  1  0  0  0  0
 38 39  1  0  0  0  0
 41 38  1  0  0  0  0
 41 42  2  0  0  0  0
 42 50  1  0  0  0  0
 43 44  1  0  0  0  0
 43 42  1  0  0  0  0
 44 51  1  0  0  0  0
 45 52  1  0  0  0  0
 45 44  2  0  0  0  0
 46 45  1  0  0  0  0
 47 46  2  0  0  0  0
 47 48  1  0  0  0  0
 48 49  2  0  0  0  0
 48 43  1  0  0  0  0
 49 41  1  0  0  0  0
 53 46  1  0  0  0  0
 54 47  1  0  0  0  0
M  END
>  <MODEL>
15

>  <REMARK>
 VINA RESULT:    -6.121      1.947      2.932
 INTER + INTRA:         -10.293
 INTER:                  -9.480
 INTRA:                  -0.813
 UNBOUND:                -0.951
  Name = 
  10 active torsions:
  status: ('A' for Active; 'I' for Inactive)
    1  A    between atoms: C_1  and  O_2
    2  A    between atoms: O_2  and  C_3
    3  A    between atoms: C_3  and  C_4
    4  A    between atoms: C_4  and  N_5
    5  A    between atoms: C_9  and  C_10
    6  A    between atoms: C_10  and  N_11
    7  A    between atoms: N_11  and  C_12
    8  A    between atoms: C_12  and  C_13
    9  A    between atoms: C_22  and  C_23
   10  A    between atoms: N_26  and  C_27
                            x       y       z     vdW  Elec       q    Type
                         _______ _______ _______ _____ _____    ______ ____

>  <TORSDO>
F 10

$$$$
=
 OpenBabel07192307433D

 54 57  0  0  1  0  0  0  0  0999 V2000
    4.5650    3.9750   17.1970 N   0  0  0  0  0  0  0  0  0  0  0  0
    3.2150    3.6870   17.0210 C   0  0  0  0  0  0  0  0  0  0  0  0
    2.7190    3.0010   16.1400 O   0  0  0  0  0  0  0  0  0  0  0  0
    2.4400    4.2900   18.1660 C   0  0  0  0  0  0  0  0  0  0  0  0
    3.4540    5.2270   18.8250 C   0  0  2  0  0  0  0  0  0  0  0  0
    4.8010    4.5750   18.4970 C   0  0  2  0  0  0  0  0  0  0  0  0
    2.1100    3.4770   18.8180 H   0  0  0  0  0  0  0  0  0  0  0  0
    1.5730    4.8400   17.7910 H   0  0  0  0  0  0  0  0  0  0  0  0
    3.3740    6.1960   18.3090 H   0  0  0  0  0  0  0  0  0  0  0  0
    5.0140    3.7440   19.1820 H   0  0  0  0  0  0  0  0  0  0  0  0
    5.9480    5.5280   18.4870 C   0  0  0  0  0  0  0  0  0  0  0  0
    7.1770    5.4470   19.1850 C   0  0  0  0  0  0  0  0  0  0  0  0
    7.9920    6.4700   18.9200 N   0  0  0  0  0  0  0  0  0  0  0  0
    7.2920    7.2150   18.0480 N   0  0  0  0  0  0  0  0  0  0  0  0
    6.0640    6.6990   17.7600 C   0  0  0  0  0  0  0  0  0  0  0  0
    7.5040    4.6830   19.8830 H   0  0  0  0  0  0  0  0  0  0  0  0
    5.3900    7.1830   17.0670 H   0  0  0  0  0  0  0  0  0  0  0  0
    7.8780    8.4200   17.5140 C   0  0  0  0  0  0  0  0  0  0  0  0
    7.3570    8.6770   16.5890 H   0  0  0  0  0  0  0  0  0  0  0  0
    8.9380    8.2480   17.3080 H   0  0  0  0  0  0  0  0  0  0  0  0
    7.7650    9.2140   18.2550 H   0  0  0  0  0  0  0  0  0  0  0  0
    5.6010    3.3000   16.4180 C   0  0  0  0  0  0  0  0  0  0  0  0
    5.1790    2.3670   16.0310 H   0  0  0  0  0  0  0  0  0  0  0  0
    6.4200    3.0220   17.0910 H   0  0  0  0  0  0  0  0  0  0  0  0
    6.1370    4.1350   15.2450 C   0  0  0  0  0  0  0  0  0  0  0  0
    7.1730    3.8510   15.0220 H   0  0  0  0  0  0  0  0  0  0  0  0
    6.1620    5.1920   15.5220 H   0  0  0  0  0  0  0  0  0  0  0  0
    5.3410    4.0420   14.0620 O   0  0  0  0  0  0  0  0  0  0  0  0
    6.0800    3.6370   12.9180 C   0  0  0  0  0  0  0  0  0  0  0  0
    5.8100    4.2530   12.0550 H   0  0  0  0  0  0  0  0  0  0  0  0
    7.1560    3.6950   13.0930 H   0  0  0  0  0  0  0  0  0  0  0  0
    5.8220    2.5980   12.6960 H   0  0  0  0  0  0  0  0  0  0  0  0
    3.2210    5.4900   20.3170 C   0  0  0  0  0  0  0  0  0  0  0  0
    4.1270    5.9450   20.7320 H   0  0  0  0  0  0  0  0  0  0  0  0
    3.0840    4.5230   20.8150 H   0  0  0  0  0  0  0  0  0  0  0  0
    2.0600    6.3500   20.5780 N   0  0  0  0  0  0  0  0  0  0  0  0
    1.2050    5.8570   20.3180 H   0  0  0  0  0  0  0  0  0  0  0  0
    2.1140    7.5890   19.7840 C   0  0  0  0  0  0  0  0  0  0  0  0
    3.1510    7.9440   19.7750 H   0  0  0  0  0  0  0  0  0  0  0  0
    1.8400    7.4040   18.7390 H   0  0  0  0  0  0  0  0  0  0  0  0
    1.2450    8.6460   20.3850 C   0  0  0  0  0  0  0  0  0  0  0  0
    0.7830    9.8140   19.8110 C   0  0  0  0  0  0  0  0  0  0  0  0
    0.0430   10.4420   20.7810 N   0  0  0  0  0  0  0  0  0  0  0  0
   -0.6420   11.6530   20.7300 C   0  0  0  0  0  0  0  0  0  0  0  0
   -1.3050   12.0750   21.8210 C   0  0  0  0  0  0  0  0  0  0  0  0
   -1.2860   11.2480   23.0200 C   0  0  0  0  0  0  0  0  0  0  0  0
   -0.6200   10.0770   23.0580 C   0  0  0  0  0  0  0  0  0  0  0  0
    0.0860    9.6270   21.9060 C   0  0  0  0  0  0  0  0  0  0  0  0
    0.8020    8.5440   21.6880 N   0  0  0  0  0  0  0  0  0  0  0  0
    0.9170   10.2390   18.8260 H   0  0  0  0  0  0  0  0  0  0  0  0
   -0.6090   12.2110   19.8020 H   0  0  0  0  0  0  0  0  0  0  0  0
   -1.8530   13.0110   21.8360 H   0  0  0  0  0  0  0  0  0  0  0  0
   -1.8290   11.6050   23.8900 H   0  0  0  0  0  0  0  0  0  0  0  0
   -0.6050    9.4580   23.9480 H   0  0  0  0  0  0  0  0  0  0  0  0
  1  6  1  0  0  0  0
  2  1  1  0  0  0  0
  2  4  1  0  0  0  0
  3  2  2  0  0  0  0
  4  7  1  0  0  0  0
  4  5  1  0  0  0  0
  5  9  1  6  0  0  0
  5 33  1  0  0  0  0
  6  5  1  0  0  0  0
  6 10  1  1  0  0  0
  8  4  1  0  0  0  0
 11  6  1  0  0  0  0
 11 12  1  0  0  0  0
 12 16  1  0  0  0  0
 13 12  2  0  0  0  0
 14 13  1  0  0  0  0
 15 14  1  0  0  0  0
 15 11  2  0  0  0  0
 17 15  1  0  0  0  0
 18 14  1  0  0  0  0
 18 21  1  0  0  0  0
 19 18  1  0  0  0  0
 20 18  1  0  0  0  0
 22 24  1  0  0  0  0
 22  1  1  0  0  0  0
 23 22  1  0  0  0  0
 25 27  1  0  0  0  0
 25 22  1  0  0  0  0
 26 25  1  0  0  0  0
 28 25  1  0  0  0  0
 29 31  1  0  0  0  0
 29 28  1  0  0  0  0
 30 29  1  0  0  0  0
 32 29  1  0  0  0  0
 33 36  1  0  0  0  0
 33 34  1  0  0  0  0
 33 35  1  0  0  0  0
 37 36  1  0  0  0  0
 38 41  1  0  0  0  0
 38 36  1  0  0  0  0
 39 38  1  0  0  0  0
 40 38  1  0  0  0  0
 41 49  1  0  0  0  0
 42 41  2  0  0  0  0
 42 43  1  0  0  0  0
 43 48  1  0  0  0  0
 44 43  1  0  0  0  0
 44 45  2  0  0  0  0
 45 52  1  0  0  0  0
 45 46  1  0  0  0  0
 46 47  2  0  0  0  0
 46 53  1  0  0  0  0
 47 54  1  0  0  0  0
 48 47  1  0  0  0  0
 49 48  2  0  0  0  0
 50 42  1  0  0  0  0
 51 44  1  0  0  0  0
M  END
>  <MODEL>
16

>  <REMARK>
 VINA RESULT:    -6.114      1.977      3.124
 INTER + INTRA:         -10.282
 INTER:                  -9.412
 INTRA:                  -0.870
 UNBOUND:                -0.951
  Name = 
  10 active torsions:
  status: ('A' for Active; 'I' for Inactive)
    1  A    between atoms: C_1  and  O_2
    2  A    between atoms: O_2  and  C_3
    3  A    between atoms: C_3  and  C_4
    4  A    between atoms: C_4  and  N_5
    5  A    between atoms: C_9  and  C_10
    6  A    between atoms: C_10  and  N_11
    7  A    between atoms: N_11  and  C_12
    8  A    between atoms: C_12  and  C_13
    9  A    between atoms: C_22  and  C_23
   10  A    between atoms: N_26  and  C_27
                            x       y       z     vdW  Elec       q    Type
                         _______ _______ _______ _____ _____    ______ ____

>  <TORSDO>
F 10

$$$$
=
 OpenBabel07192307433D

 54 57  0  0  1  0  0  0  0  0999 V2000
    0.6130   13.2830   18.5530 N   0  0  0  0  0  0  0  0  0  0  0  0
    1.9570   13.2220   18.2030 C   0  0  0  0  0  0  0  0  0  0  0  0
    2.7150   14.1650   18.0300 O   0  0  0  0  0  0  0  0  0  0  0  0
    2.3790   11.7750   18.1570 C   0  0  0  0  0  0  0  0  0  0  0  0
    1.0500   11.0170   18.1910 C   0  0  2  0  0  0  0  0  0  0  0  0
    0.1190   11.9750   18.9430 C   0  0  2  0  0  0  0  0  0  0  0  0
    3.0150   11.5780   19.0240 H   0  0  0  0  0  0  0  0  0  0  0  0
    2.9320   11.5680   17.2360 H   0  0  0  0  0  0  0  0  0  0  0  0
    0.7140   10.9150   17.1480 H   0  0  0  0  0  0  0  0  0  0  0  0
    0.2730   11.9030   20.0270 H   0  0  0  0  0  0  0  0  0  0  0  0
   -1.3260   11.7890   18.6240 C   0  0  0  0  0  0  0  0  0  0  0  0
   -2.4480   11.9150   19.4780 C   0  0  0  0  0  0  0  0  0  0  0  0
   -3.6050   11.7030   18.8470 N   0  0  0  0  0  0  0  0  0  0  0  0
   -3.2340   11.4430   17.5820 N   0  0  0  0  0  0  0  0  0  0  0  0
   -1.8840   11.4770   17.3970 C   0  0  0  0  0  0  0  0  0  0  0  0
   -2.4630   12.1450   20.5370 H   0  0  0  0  0  0  0  0  0  0  0  0
   -1.4350   11.2960   16.4310 H   0  0  0  0  0  0  0  0  0  0  0  0
   -4.2430   11.1780   16.5870 C   0  0  0  0  0  0  0  0  0  0  0  0
   -3.8300   11.4170   15.6040 H   0  0  0  0  0  0  0  0  0  0  0  0
   -5.1190   11.8020   16.7830 H   0  0  0  0  0  0  0  0  0  0  0  0
   -4.5150   10.1210   16.6460 H   0  0  0  0  0  0  0  0  0  0  0  0
   -0.0200   14.5370   18.9540 C   0  0  0  0  0  0  0  0  0  0  0  0
   -1.0950   14.4510   18.7570 H   0  0  0  0  0  0  0  0  0  0  0  0
    0.3540   15.3410   18.3100 H   0  0  0  0  0  0  0  0  0  0  0  0
    0.1940   14.8960   20.4320 C   0  0  0  0  0  0  0  0  0  0  0  0
    0.3960   15.9690   20.5350 H   0  0  0  0  0  0  0  0  0  0  0  0
    1.0770   14.3790   20.8150 H   0  0  0  0  0  0  0  0  0  0  0  0
   -0.8950   14.5230   21.2790 O   0  0  0  0  0  0  0  0  0  0  0  0
   -0.5290   13.5950   22.2890 C   0  0  0  0  0  0  0  0  0  0  0  0
    0.0790   12.7900   21.8620 H   0  0  0  0  0  0  0  0  0  0  0  0
    0.0150   14.0780   23.1030 H   0  0  0  0  0  0  0  0  0  0  0  0
   -1.4430   13.1570   22.6980 H   0  0  0  0  0  0  0  0  0  0  0  0
    1.1220    9.6050   18.7820 C   0  0  0  0  0  0  0  0  0  0  0  0
    0.1410    9.3590   19.2050 H   0  0  0  0  0  0  0  0  0  0  0  0
    1.8410    9.6200   19.6100 H   0  0  0  0  0  0  0  0  0  0  0  0
    1.5180    8.5870   17.8010 N   0  0  0  0  0  0  0  0  0  0  0  0
    0.7850    7.8820   17.7270 H   0  0  0  0  0  0  0  0  0  0  0  0
    2.7550    7.8970   18.2050 C   0  0  0  0  0  0  0  0  0  0  0  0
    3.4170    7.8470   17.3330 H   0  0  0  0  0  0  0  0  0  0  0  0
    3.2940    8.4640   18.9720 H   0  0  0  0  0  0  0  0  0  0  0  0
    2.4620    6.5080   18.6730 C   0  0  0  0  0  0  0  0  0  0  0  0
    2.2940    5.3610   17.9220 C   0  0  0  0  0  0  0  0  0  0  0  0
    2.0280    4.3600   18.8220 N   0  0  0  0  0  0  0  0  0  0  0  0
    1.7760    3.0090   18.5980 C   0  0  0  0  0  0  0  0  0  0  0  0
    1.5360    2.2060   19.6500 C   0  0  0  0  0  0  0  0  0  0  0  0
    1.5480    2.7780   20.9890 C   0  0  0  0  0  0  0  0  0  0  0  0
    1.7940    4.0870   21.1950 C   0  0  0  0  0  0  0  0  0  0  0  0
    2.0470    4.9420   20.0850 C   0  0  0  0  0  0  0  0  0  0  0  0
    2.3060    6.2310   20.0160 N   0  0  0  0  0  0  0  0  0  0  0  0
    2.3360    5.1800   16.8580 H   0  0  0  0  0  0  0  0  0  0  0  0
    1.7850    2.6600   17.5730 H   0  0  0  0  0  0  0  0  0  0  0  0
    1.3330    1.1470   19.5320 H   0  0  0  0  0  0  0  0  0  0  0  0
    1.3540    2.1130   21.8250 H   0  0  0  0  0  0  0  0  0  0  0  0
    1.8060    4.5160   22.1910 H   0  0  0  0  0  0  0  0  0  0  0  0
  1  6  1  0  0  0  0
  1 22  1  0  0  0  0
  2  1  1  0  0  0  0
  3  2  2  0  0  0  0
  4  5  1  0  0  0  0
  4  2  1  0  0  0  0
  4  7  1  0  0  0  0
  5  9  1  6  0  0  0
  5 33  1  0  0  0  0
  5  6  1  0  0  0  0
  6 10  1  1  0  0  0
  8  4  1  0  0  0  0
 11  6  1  0  0  0  0
 11 12  1  0  0  0  0
 12 16  1  0  0  0  0
 13 12  2  0  0  0  0
 14 13  1  0  0  0  0
 15 14  1  0  0  0  0
 15 11  2  0  0  0  0
 17 15  1  0  0  0  0
 18 21  1  0  0  0  0
 18 20  1  0  0  0  0
 18 14  1  0  0  0  0
 19 18  1  0  0  0  0
 22 25  1  0  0  0  0
 23 22  1  0  0  0  0
 24 22  1  0  0  0  0
 25 26  1  0  0  0  0
 25 27  1  0  0  0  0
 25 28  1  0  0  0  0
 28 29  1  0  0  0  0
 29 32  1  0  0  0  0
 29 31  1  0  0  0  0
 30 29  1  0  0  0  0
 33 34  1  0  0  0  0
 33 35  1  0  0  0  0
 36 38  1  0  0  0  0
 36 33  1  0  0  0  0
 37 36  1  0  0  0  0
 38 41  1  0  0  0  0
 38 40  1  0  0  0  0
 39 38  1  0  0  0  0
 41 49  1  0  0  0  0
 42 41  2  0  0  0  0
 42 43  1  0  0  0  0
 43 48  1  0  0  0  0
 44 43  1  0  0  0  0
 44 45  2  0  0  0  0
 45 46  1  0  0  0  0
 46 47  2  0  0  0  0
 46 53  1  0  0  0  0
 47 54  1  0  0  0  0
 48 47  1  0  0  0  0
 49 48  2  0  0  0  0
 50 42  1  0  0  0  0
 51 44  1  0  0  0  0
 52 45  1  0  0  0  0
M  END
>  <MODEL>
17

>  <REMARK>
 VINA RESULT:    -6.090      4.103      9.032
 INTER + INTRA:         -10.245
 INTER:                  -9.230
 INTRA:                  -1.016
 UNBOUND:                -0.951
  Name = 
  10 active torsions:
  status: ('A' for Active; 'I' for Inactive)
    1  A    between atoms: C_1  and  O_2
    2  A    between atoms: O_2  and  C_3
    3  A    between atoms: C_3  and  C_4
    4  A    between atoms: C_4  and  N_5
    5  A    between atoms: C_9  and  C_10
    6  A    between atoms: C_10  and  N_11
    7  A    between atoms: N_11  and  C_12
    8  A    between atoms: C_12  and  C_13
    9  A    between atoms: C_22  and  C_23
   10  A    between atoms: N_26  and  C_27
                            x       y       z     vdW  Elec       q    Type
                         _______ _______ _______ _____ _____    ______ ____

>  <TORSDO>
F 10

$$$$
=
 OpenBabel07192307433D

 54 57  0  0  1  0  0  0  0  0999 V2000
    2.6180    3.3440   18.7020 N   0  0  0  0  0  0  0  0  0  0  0  0
    1.3190    3.0530   19.1040 C   0  0  0  0  0  0  0  0  0  0  0  0
    0.6810    2.0410   18.8520 O   0  0  0  0  0  0  0  0  0  0  0  0
    0.8300    4.1630   20.0000 C   0  0  0  0  0  0  0  0  0  0  0  0
    1.8670    5.2690   19.7920 C   0  0  2  0  0  0  0  0  0  0  0  0
    3.1370    4.4940   19.4190 C   0  0  2  0  0  0  0  0  0  0  0  0
    0.7980    3.7830   21.0250 H   0  0  0  0  0  0  0  0  0  0  0  0
   -0.1670    4.4890   19.6940 H   0  0  0  0  0  0  0  0  0  0  0  0
    1.5290    5.8650   18.9300 H   0  0  0  0  0  0  0  0  0  0  0  0
    3.6320    4.0970   20.3130 H   0  0  0  0  0  0  0  0  0  0  0  0
    4.1100    5.2830   18.6090 C   0  0  0  0  0  0  0  0  0  0  0  0
    3.8640    6.1200   17.4940 C   0  0  0  0  0  0  0  0  0  0  0  0
    4.9740    6.6980   17.0270 N   0  0  0  0  0  0  0  0  0  0  0  0
    5.9380    6.2360   17.8400 N   0  0  0  0  0  0  0  0  0  0  0  0
    5.4760    5.3850   18.7990 C   0  0  0  0  0  0  0  0  0  0  0  0
    2.9200    6.3240   17.0020 H   0  0  0  0  0  0  0  0  0  0  0  0
    6.1330    4.9390   19.5320 H   0  0  0  0  0  0  0  0  0  0  0  0
    7.2990    6.6700   17.6440 C   0  0  0  0  0  0  0  0  0  0  0  0
    7.6040    6.4050   16.6300 H   0  0  0  0  0  0  0  0  0  0  0  0
    7.9480    6.1700   18.3690 H   0  0  0  0  0  0  0  0  0  0  0  0
    7.3400    7.7520   17.7900 H   0  0  0  0  0  0  0  0  0  0  0  0
    3.4660    2.3410   18.0620 C   0  0  0  0  0  0  0  0  0  0  0  0
    4.2700    2.8670   17.5340 H   0  0  0  0  0  0  0  0  0  0  0  0
    2.8780    1.8180   17.3010 H   0  0  0  0  0  0  0  0  0  0  0  0
    4.0830    1.3330   19.0430 C   0  0  0  0  0  0  0  0  0  0  0  0
    4.8320    0.7170   18.5310 H   0  0  0  0  0  0  0  0  0  0  0  0
    3.3140    0.6460   19.4020 H   0  0  0  0  0  0  0  0  0  0  0  0
    4.6610    1.9380   20.2020 O   0  0  0  0  0  0  0  0  0  0  0  0
    5.3300    1.0100   21.0450 C   0  0  0  0  0  0  0  0  0  0  0  0
    4.7000    0.7570   21.9040 H   0  0  0  0  0  0  0  0  0  0  0  0
    5.6050    0.1020   20.5070 H   0  0  0  0  0  0  0  0  0  0  0  0
    6.2440    1.4830   21.4150 H   0  0  0  0  0  0  0  0  0  0  0  0
    2.0340    6.2340   20.9710 C   0  0  0  0  0  0  0  0  0  0  0  0
    3.0080    6.0420   21.4360 H   0  0  0  0  0  0  0  0  0  0  0  0
    1.2640    5.9980   21.7140 H   0  0  0  0  0  0  0  0  0  0  0  0
    1.9300    7.6460   20.5810 N   0  0  0  0  0  0  0  0  0  0  0  0
    2.7460    8.1540   20.9220 H   0  0  0  0  0  0  0  0  0  0  0  0
    0.7380    8.2820   21.1630 C   0  0  0  0  0  0  0  0  0  0  0  0
   -0.1310    7.6540   20.9340 H   0  0  0  0  0  0  0  0  0  0  0  0
    0.8050    8.3310   22.2560 H   0  0  0  0  0  0  0  0  0  0  0  0
    0.5200    9.6420   20.5810 C   0  0  0  0  0  0  0  0  0  0  0  0
   -0.2750   10.0060   19.5120 C   0  0  0  0  0  0  0  0  0  0  0  0
   -0.1140   11.3610   19.3700 N   0  0  0  0  0  0  0  0  0  0  0  0
   -0.6850   12.2320   18.4450 C   0  0  0  0  0  0  0  0  0  0  0  0
   -0.3720   13.5380   18.4970 C   0  0  0  0  0  0  0  0  0  0  0  0
    0.5530   14.0000   19.5230 C   0  0  0  0  0  0  0  0  0  0  0  0
    1.1000   13.1500   20.4140 C   0  0  0  0  0  0  0  0  0  0  0  0
    0.7740   11.7650   20.3610 C   0  0  0  0  0  0  0  0  0  0  0  0
    1.1660   10.7460   21.0980 N   0  0  0  0  0  0  0  0  0  0  0  0
   -0.9190    9.4340   18.8600 H   0  0  0  0  0  0  0  0  0  0  0  0
   -1.3640   11.8120   17.7140 H   0  0  0  0  0  0  0  0  0  0  0  0
   -0.7880   14.2590   17.8010 H   0  0  0  0  0  0  0  0  0  0  0  0
    0.7920   15.0590   19.5500 H   0  0  0  0  0  0  0  0  0  0  0  0
    1.7880   13.4900   21.1800 H   0  0  0  0  0  0  0  0  0  0  0  0
  1  2  1  0  0  0  0
  1  6  1  0  0  0  0
  2  4  1  0  0  0  0
  3  2  2  0  0  0  0
  4  7  1  0  0  0  0
  5  9  1  6  0  0  0
  5  4  1  0  0  0  0
  5 33  1  0  0  0  0
  6  5  1  0  0  0  0
  6 10  1  1  0  0  0
  8  4  1  0  0  0  0
 11 15  2  0  0  0  0
 11  6  1  0  0  0  0
 12 11  1  0  0  0  0
 13 12  2  0  0  0  0
 13 14  1  0  0  0  0
 14 15  1  0  0  0  0
 15 17  1  0  0  0  0
 16 12  1  0  0  0  0
 18 21  1  0  0  0  0
 18 14  1  0  0  0  0
 18 20  1  0  0  0  0
 19 18  1  0  0  0  0
 22  1  1  0  0  0  0
 22 25  1  0  0  0  0
 23 22  1  0  0  0  0
 24 22  1  0  0  0  0
 25 27  1  0  0  0  0
 25 28  1  0  0  0  0
 26 25  1  0  0  0  0
 28 29  1  0  0  0  0
 29 32  1  0  0  0  0
 29 30  1  0  0  0  0
 31 29  1  0  0  0  0
 33 34  1  0  0  0  0
 33 35  1  0  0  0  0
 36 37  1  0  0  0  0
 36 33  1  0  0  0  0
 36 38  1  0  0  0  0
 38 40  1  0  0  0  0
 39 38  1  0  0  0  0
 41 49  1  0  0  0  0
 41 38  1  0  0  0  0
 42 41  2  0  0  0  0
 43 42  1  0  0  0  0
 43 48  1  0  0  0  0
 44 45  2  0  0  0  0
 44 43  1  0  0  0  0
 45 46  1  0  0  0  0
 46 53  1  0  0  0  0
 46 47  2  0  0  0  0
 47 54  1  0  0  0  0
 48 47  1  0  0  0  0
 48 49  2  0  0  0  0
 50 42  1  0  0  0  0
 51 44  1  0  0  0  0
 52 45  1  0  0  0  0
M  END
>  <MODEL>
18

>  <REMARK>
 VINA RESULT:    -6.008      2.095      3.037
 INTER + INTRA:         -10.120
 INTER:                  -9.359
 INTRA:                  -0.762
 UNBOUND:                -0.951
  Name = 
  10 active torsions:
  status: ('A' for Active; 'I' for Inactive)
    1  A    between atoms: C_1  and  O_2
    2  A    between atoms: O_2  and  C_3
    3  A    between atoms: C_3  and  C_4
    4  A    between atoms: C_4  and  N_5
    5  A    between atoms: C_9  and  C_10
    6  A    between atoms: C_10  and  N_11
    7  A    between atoms: N_11  and  C_12
    8  A    between atoms: C_12  and  C_13
    9  A    between atoms: C_22  and  C_23
   10  A    between atoms: N_26  and  C_27
                            x       y       z     vdW  Elec       q    Type
                         _______ _______ _______ _____ _____    ______ ____

>  <TORSDO>
F 10

$$$$
=
 OpenBabel07192307433D

 54 57  0  0  1  0  0  0  0  0999 V2000
    0.9510   11.8650   19.8960 N   0  0  0  0  0  0  0  0  0  0  0  0
    1.5910   11.2060   18.8510 C   0  0  0  0  0  0  0  0  0  0  0  0
    2.2130   11.7170   17.9320 O   0  0  0  0  0  0  0  0  0  0  0  0
    1.4750    9.7190   19.0760 C   0  0  0  0  0  0  0  0  0  0  0  0
    0.4200    9.6080   20.1790 C   0  0  2  0  0  0  0  0  0  0  0  0
    0.5650   10.9320   20.9380 C   0  0  2  0  0  0  0  0  0  0  0  0
    2.4580    9.3440   19.3740 H   0  0  0  0  0  0  0  0  0  0  0  0
    1.1490    9.2190   18.1600 H   0  0  0  0  0  0  0  0  0  0  0  0
   -0.5600    9.5720   19.6790 H   0  0  0  0  0  0  0  0  0  0  0  0
    1.4080   10.8930   21.6390 H   0  0  0  0  0  0  0  0  0  0  0  0
   -0.6710   11.3550   21.6560 C   0  0  0  0  0  0  0  0  0  0  0  0
   -1.0280   11.1450   23.0110 C   0  0  0  0  0  0  0  0  0  0  0  0
   -2.2060   11.6880   23.3260 N   0  0  0  0  0  0  0  0  0  0  0  0
   -2.6130   12.2520   22.1760 N   0  0  0  0  0  0  0  0  0  0  0  0
   -1.7350   12.0780   21.1480 C   0  0  0  0  0  0  0  0  0  0  0  0
   -0.4750   10.6100   23.7750 H   0  0  0  0  0  0  0  0  0  0  0  0
   -1.9220   12.4830   20.1630 H   0  0  0  0  0  0  0  0  0  0  0  0
   -3.8670   12.9630   22.1400 C   0  0  0  0  0  0  0  0  0  0  0  0
   -4.4490   12.6830   23.0210 H   0  0  0  0  0  0  0  0  0  0  0  0
   -4.4130   12.6890   21.2320 H   0  0  0  0  0  0  0  0  0  0  0  0
   -3.6550   14.0340   22.1400 H   0  0  0  0  0  0  0  0  0  0  0  0
    1.1240   13.2990   20.1190 C   0  0  0  0  0  0  0  0  0  0  0  0
    0.3050   13.6410   20.7610 H   0  0  0  0  0  0  0  0  0  0  0  0
    1.0140   13.8190   19.1620 H   0  0  0  0  0  0  0  0  0  0  0  0
    2.4640   13.6670   20.7740 C   0  0  0  0  0  0  0  0  0  0  0  0
    2.9570   12.7650   21.1580 H   0  0  0  0  0  0  0  0  0  0  0  0
    2.2910   14.3140   21.6370 H   0  0  0  0  0  0  0  0  0  0  0  0
    3.3530   14.3750   19.9060 O   0  0  0  0  0  0  0  0  0  0  0  0
    2.6840   15.0790   18.8700 C   0  0  0  0  0  0  0  0  0  0  0  0
    3.2380   15.9870   18.6100 H   0  0  0  0  0  0  0  0  0  0  0  0
    2.5500   14.4590   17.9820 H   0  0  0  0  0  0  0  0  0  0  0  0
    1.6970   15.3720   19.2390 H   0  0  0  0  0  0  0  0  0  0  0  0
    0.5270    8.3560   21.0560 C   0  0  0  0  0  0  0  0  0  0  0  0
   -0.3060    7.6890   20.8050 H   0  0  0  0  0  0  0  0  0  0  0  0
    0.3960    8.6620   22.1010 H   0  0  0  0  0  0  0  0  0  0  0  0
    1.8040    7.6490   20.9020 N   0  0  0  0  0  0  0  0  0  0  0  0
    2.3290    8.0590   20.1290 H   0  0  0  0  0  0  0  0  0  0  0  0
    1.6010    6.2250   20.5920 C   0  0  0  0  0  0  0  0  0  0  0  0
    1.8560    5.6410   21.4850 H   0  0  0  0  0  0  0  0  0  0  0  0
    0.5490    6.0110   20.3720 H   0  0  0  0  0  0  0  0  0  0  0  0
    2.4810    5.7930   19.4630 C   0  0  0  0  0  0  0  0  0  0  0  0
    2.7780    4.5120   19.0400 C   0  0  0  0  0  0  0  0  0  0  0  0
    3.6410    4.6580   17.9840 N   0  0  0  0  0  0  0  0  0  0  0  0
    4.2500    3.6850   17.1950 C   0  0  0  0  0  0  0  0  0  0  0  0
    5.0730    4.0690   16.2030 C   0  0  0  0  0  0  0  0  0  0  0  0
    5.2980    5.4920   15.9860 C   0  0  0  0  0  0  0  0  0  0  0  0
    4.7030    6.4260   16.7550 C   0  0  0  0  0  0  0  0  0  0  0  0
    3.8330    6.0240   17.8080 C   0  0  0  0  0  0  0  0  0  0  0  0
    3.1450    6.7220   18.6870 N   0  0  0  0  0  0  0  0  0  0  0  0
    2.4600    3.5420   19.3930 H   0  0  0  0  0  0  0  0  0  0  0  0
    4.0320    2.6490   17.4180 H   0  0  0  0  0  0  0  0  0  0  0  0
    5.5730    3.3540   15.5600 H   0  0  0  0  0  0  0  0  0  0  0  0
    5.9630    5.7820   15.1790 H   0  0  0  0  0  0  0  0  0  0  0  0
    4.8670    7.4850   16.5960 H   0  0  0  0  0  0  0  0  0  0  0  0
  1 22  1  0  0  0  0
  1  6  1  0  0  0  0
  2  4  1  0  0  0  0
  2  1  1  0  0  0  0
  3  2  2  0  0  0  0
  4  7  1  0  0  0  0
  4  5  1  0  0  0  0
  5  9  1  6  0  0  0
  5  6  1  0  0  0  0
  5 33  1  0  0  0  0
  6 10  1  1  0  0  0
  6 11  1  0  0  0  0
  8  4  1  0  0  0  0
 11 12  1  0  0  0  0
 12 13  2  0  0  0  0
 12 16  1  0  0  0  0
 14 13  1  0  0  0  0
 15 11  2  0  0  0  0
 15 14  1  0  0  0  0
 17 15  1  0  0  0  0
 18 14  1  0  0  0  0
 18 19  1  0  0  0  0
 20 18  1  0  0  0  0
 21 18  1  0  0  0  0
 22 23  1  0  0  0  0
 22 25  1  0  0  0  0
 24 22  1  0  0  0  0
 25 26  1  0  0  0  0
 25 27  1  0  0  0  0
 28 25  1  0  0  0  0
 29 32  1  0  0  0  0
 29 28  1  0  0  0  0
 30 29  1  0  0  0  0
 31 29  1  0  0  0  0
 33 35  1  0  0  0  0
 34 33  1  0  0  0  0
 36 33  1  0  0  0  0
 37 36  1  0  0  0  0
 38 36  1  0  0  0  0
 38 39  1  0  0  0  0
 40 38  1  0  0  0  0
 41 38  1  0  0  0  0
 42 50  1  0  0  0  0
 42 41  2  0  0  0  0
 43 42  1  0  0  0  0
 44 51  1  0  0  0  0
 44 43  1  0  0  0  0
 45 44  2  0  0  0  0
 46 45  1  0  0  0  0
 46 47  2  0  0  0  0
 47 48  1  0  0  0  0
 48 43  1  0  0  0  0
 48 49  2  0  0  0  0
 49 41  1  0  0  0  0
 52 45  1  0  0  0  0
 53 46  1  0  0  0  0
 54 47  1  0  0  0  0
M  END
>  <MODEL>
19

>  <REMARK>
 VINA RESULT:    -6.006      3.101      9.278
 INTER + INTRA:         -10.118
 INTER:                  -9.304
 INTRA:                  -0.814
 UNBOUND:                -0.951
  Name = 
  10 active torsions:
  status: ('A' for Active; 'I' for Inactive)
    1  A    between atoms: C_1  and  O_2
    2  A    between atoms: O_2  and  C_3
    3  A    between atoms: C_3  and  C_4
    4  A    between atoms: C_4  and  N_5
    5  A    between atoms: C_9  and  C_10
    6  A    between atoms: C_10  and  N_11
    7  A    between atoms: N_11  and  C_12
    8  A    between atoms: C_12  and  C_13
    9  A    between atoms: C_22  and  C_23
   10  A    between atoms: N_26  and  C_27
                            x       y       z     vdW  Elec       q    Type
                         _______ _______ _______ _____ _____    ______ ____

>  <TORSDO>
F 10

$$$$
=
 OpenBabel07192307433D

 54 57  0  0  1  0  0  0  0  0999 V2000
    3.0820    3.1330   19.7010 N   0  0  0  0  0  0  0  0  0  0  0  0
    1.9360    3.3440   20.4590 C   0  0  0  0  0  0  0  0  0  0  0  0
    1.2950    2.5030   21.0720 O   0  0  0  0  0  0  0  0  0  0  0  0
    1.6420    4.8240   20.4890 C   0  0  0  0  0  0  0  0  0  0  0  0
    2.5520    5.3870   19.3950 C   0  0  2  0  0  0  0  0  0  0  0  0
    3.7180    4.3920   19.3610 C   0  0  2  0  0  0  0  0  0  0  0  0
    1.8800    5.1960   21.4890 H   0  0  0  0  0  0  0  0  0  0  0  0
    0.5880    5.0080   20.2660 H   0  0  0  0  0  0  0  0  0  0  0  0
    1.9870    5.3320   18.4520 H   0  0  0  0  0  0  0  0  0  0  0  0
    4.4340    4.5980   20.1650 H   0  0  0  0  0  0  0  0  0  0  0  0
    4.4280    4.3400   18.0510 C   0  0  0  0  0  0  0  0  0  0  0  0
    3.9280    3.9510   16.7840 C   0  0  0  0  0  0  0  0  0  0  0  0
    4.8400    4.0520   15.8140 N   0  0  0  0  0  0  0  0  0  0  0  0
    5.9310    4.5090   16.4510 N   0  0  0  0  0  0  0  0  0  0  0  0
    5.7390    4.6940   17.7890 C   0  0  0  0  0  0  0  0  0  0  0  0
    2.9360    3.5900   16.5360 H   0  0  0  0  0  0  0  0  0  0  0  0
    6.5240    5.0650   18.4320 H   0  0  0  0  0  0  0  0  0  0  0  0
    7.1370    4.7630   15.7020 C   0  0  0  0  0  0  0  0  0  0  0  0
    7.7520    5.4680   16.2650 H   0  0  0  0  0  0  0  0  0  0  0  0
    6.8770    5.1900   14.7300 H   0  0  0  0  0  0  0  0  0  0  0  0
    7.6620    3.8150   15.5650 H   0  0  0  0  0  0  0  0  0  0  0  0
    3.7830    1.8510   19.7100 C   0  0  0  0  0  0  0  0  0  0  0  0
    4.1220    1.6440   18.6890 H   0  0  0  0  0  0  0  0  0  0  0  0
    3.0690    1.0630   19.9710 H   0  0  0  0  0  0  0  0  0  0  0  0
    4.9900    1.8120   20.6590 C   0  0  0  0  0  0  0  0  0  0  0  0
    4.7150    2.2270   21.6370 H   0  0  0  0  0  0  0  0  0  0  0  0
    5.7900    2.4460   20.2700 H   0  0  0  0  0  0  0  0  0  0  0  0
    5.5490    0.5070   20.8250 O   0  0  0  0  0  0  0  0  0  0  0  0
    6.1000    0.2930   22.1170 C   0  0  0  0  0  0  0  0  0  0  0  0
    7.0760    0.7830   22.1990 H   0  0  0  0  0  0  0  0  0  0  0  0
    5.4360    0.6550   22.9040 H   0  0  0  0  0  0  0  0  0  0  0  0
    6.2410   -0.7830   22.2540 H   0  0  0  0  0  0  0  0  0  0  0  0
    2.9680    6.8500   19.5870 C   0  0  0  0  0  0  0  0  0  0  0  0
    3.0920    7.3040   18.5970 H   0  0  0  0  0  0  0  0  0  0  0  0
    3.9490    6.8620   20.0770 H   0  0  0  0  0  0  0  0  0  0  0  0
    2.0080    7.6250   20.3810 N   0  0  0  0  0  0  0  0  0  0  0  0
    1.2770    7.0060   20.7320 H   0  0  0  0  0  0  0  0  0  0  0  0
    1.3530    8.6670   19.5730 C   0  0  0  0  0  0  0  0  0  0  0  0
    2.1180    9.1540   18.9580 H   0  0  0  0  0  0  0  0  0  0  0  0
    0.6260    8.2330   18.8770 H   0  0  0  0  0  0  0  0  0  0  0  0
    0.7080    9.6940   20.4470 C   0  0  0  0  0  0  0  0  0  0  0  0
   -0.1660    9.5070   21.5000 C   0  0  0  0  0  0  0  0  0  0  0  0
   -0.4760   10.7630   21.9570 N   0  0  0  0  0  0  0  0  0  0  0  0
   -1.3170   11.1460   22.9990 C   0  0  0  0  0  0  0  0  0  0  0  0
   -1.4720   12.4540   23.2660 C   0  0  0  0  0  0  0  0  0  0  0  0
   -0.7530   13.4280   22.4560 C   0  0  0  0  0  0  0  0  0  0  0  0
    0.0590   13.0470   21.4500 C   0  0  0  0  0  0  0  0  0  0  0  0
    0.2250   11.6630   21.1620 C   0  0  0  0  0  0  0  0  0  0  0  0
    0.9420   11.0400   20.2500 N   0  0  0  0  0  0  0  0  0  0  0  0
   -0.5820    8.6150   21.9450 H   0  0  0  0  0  0  0  0  0  0  0  0
   -1.8160   10.3620   23.5550 H   0  0  0  0  0  0  0  0  0  0  0  0
   -2.1150   12.8070   24.0650 H   0  0  0  0  0  0  0  0  0  0  0  0
   -0.8890   14.4800   22.6890 H   0  0  0  0  0  0  0  0  0  0  0  0
    0.5970   13.7690   20.8460 H   0  0  0  0  0  0  0  0  0  0  0  0
  1 22  1  0  0  0  0
  1  2  1  0  0  0  0
  2  4  1  0  0  0  0
  2  3  2  0  0  0  0
  4  7  1  0  0  0  0
  5  9  1  6  0  0  0
  5 33  1  0  0  0  0
  5  4  1  0  0  0  0
  6  5  1  0  0  0  0
  6  1  1  0  0  0  0
  6 10  1  1  0  0  0
  8  4  1  0  0  0  0
 11  6  1  0  0  0  0
 12 11  1  0  0  0  0
 13 14  1  0  0  0  0
 13 12  2  0  0  0  0
 14 15  1  0  0  0  0
 15 11  2  0  0  0  0
 15 17  1  0  0  0  0
 16 12  1  0  0  0  0
 18 19  1  0  0  0  0
 18 14  1  0  0  0  0
 20 18  1  0  0  0  0
 21 18  1  0  0  0  0
 22 24  1  0  0  0  0
 22 25  1  0  0  0  0
 23 22  1  0  0  0  0
 25 28  1  0  0  0  0
 25 26  1  0  0  0  0
 27 25  1  0  0  0  0
 28 29  1  0  0  0  0
 29 30  1  0  0  0  0
 29 32  1  0  0  0  0
 29 31  1  0  0  0  0
 33 35  1  0  0  0  0
 33 36  1  0  0  0  0
 34 33  1  0  0  0  0
 36 37  1  0  0  0  0
 38 36  1  0  0  0  0
 38 41  1  0  0  0  0
 39 38  1  0  0  0  0
 40 38  1  0  0  0  0
 41 42  2  0  0  0  0
 42 50  1  0  0  0  0
 42 43  1  0  0  0  0
 43 44  1  0  0  0  0
 44 45  2  0  0  0  0
 44 51  1  0  0  0  0
 45 52  1  0  0  0  0
 46 53  1  0  0  0  0
 46 45  1  0  0  0  0
 47 46  2  0  0  0  0
 48 47  1  0  0  0  0
 48 43  1  0  0  0  0
 49 41  1  0  0  0  0
 49 48  2  0  0  0  0
 54 47  1  0  0  0  0
M  END
>  <MODEL>
20

>  <REMARK>
 VINA RESULT:    -5.995      1.615      2.405
 INTER + INTRA:         -10.100
 INTER:                  -9.369
 INTRA:                  -0.730
 UNBOUND:                -0.951
  Name = 
  10 active torsions:
  status: ('A' for Active; 'I' for Inactive)
    1  A    between atoms: C_1  and  O_2
    2  A    between atoms: O_2  and  C_3
    3  A    between atoms: C_3  and  C_4
    4  A    between atoms: C_4  and  N_5
    5  A    between atoms: C_9  and  C_10
    6  A    between atoms: C_10  and  N_11
    7  A    between atoms: N_11  and  C_12
    8  A    between atoms: C_12  and  C_13
    9  A    between atoms: C_22  and  C_23
   10  A    between atoms: N_26  and  C_27
                            x       y       z     vdW  Elec       q    Type
                         _______ _______ _______ _____ _____    ______ ____

>  <TORSDO>
F 10

$$$$
=
 OpenBabel07192307433D

 54 57  0  0  1  0  0  0  0  0999 V2000
   -0.5010   11.5320   21.5010 N   0  0  0  0  0  0  0  0  0  0  0  0
   -0.8430   10.6180   22.4910 C   0  0  0  0  0  0  0  0  0  0  0  0
   -1.6420   10.7830   23.4000 O   0  0  0  0  0  0  0  0  0  0  0  0
   -0.1250    9.3190   22.2170 C   0  0  0  0  0  0  0  0  0  0  0  0
    0.9110    9.7040   21.1590 C   0  0  2  0  0  0  0  0  0  0  0  0
    0.2580   10.8920   20.4430 C   0  0  2  0  0  0  0  0  0  0  0  0
   -0.8620    8.5930   21.8620 H   0  0  0  0  0  0  0  0  0  0  0  0
    0.3530    8.9490   23.1270 H   0  0  0  0  0  0  0  0  0  0  0  0
    1.8080   10.0430   21.6990 H   0  0  0  0  0  0  0  0  0  0  0  0
   -0.4780   10.5500   19.7040 H   0  0  0  0  0  0  0  0  0  0  0  0
    1.2320   11.8170   19.7960 C   0  0  0  0  0  0  0  0  0  0  0  0
    1.6170   11.8920   18.4350 C   0  0  0  0  0  0  0  0  0  0  0  0
    2.5000   12.8660   18.2000 N   0  0  0  0  0  0  0  0  0  0  0  0
    2.6850   13.4240   19.4070 N   0  0  0  0  0  0  0  0  0  0  0  0
    1.9550   12.8320   20.3950 C   0  0  0  0  0  0  0  0  0  0  0  0
    1.2930   11.2670   17.6100 H   0  0  0  0  0  0  0  0  0  0  0  0
    1.9940   13.1780   21.4180 H   0  0  0  0  0  0  0  0  0  0  0  0
    3.5810   14.5460   19.5400 C   0  0  0  0  0  0  0  0  0  0  0  0
    4.0850   14.4740   20.5060 H   0  0  0  0  0  0  0  0  0  0  0  0
    3.0080   15.4760   19.4880 H   0  0  0  0  0  0  0  0  0  0  0  0
    4.3050   14.5070   18.7230 H   0  0  0  0  0  0  0  0  0  0  0  0
   -1.2380   12.7820   21.3230 C   0  0  0  0  0  0  0  0  0  0  0  0
   -0.5300   13.5450   20.9830 H   0  0  0  0  0  0  0  0  0  0  0  0
   -1.6130   13.1100   22.2980 H   0  0  0  0  0  0  0  0  0  0  0  0
   -2.3940   12.6820   20.3150 C   0  0  0  0  0  0  0  0  0  0  0  0
   -2.6190   11.6290   20.1020 H   0  0  0  0  0  0  0  0  0  0  0  0
   -2.0980   13.1310   19.3640 H   0  0  0  0  0  0  0  0  0  0  0  0
   -3.5820   13.3580   20.7330 O   0  0  0  0  0  0  0  0  0  0  0  0
   -4.2210   12.7380   21.8400 C   0  0  0  0  0  0  0  0  0  0  0  0
   -3.8470   13.1620   22.7790 H   0  0  0  0  0  0  0  0  0  0  0  0
   -5.3050   12.8450   21.7910 H   0  0  0  0  0  0  0  0  0  0  0  0
   -3.9770   11.6730   21.8220 H   0  0  0  0  0  0  0  0  0  0  0  0
    1.3470    8.5630   20.2320 C   0  0  0  0  0  0  0  0  0  0  0  0
    2.0290    8.9750   19.4790 H   0  0  0  0  0  0  0  0  0  0  0  0
    0.4590    8.1980   19.7030 H   0  0  0  0  0  0  0  0  0  0  0  0
    1.9910    7.4530   20.9440 N   0  0  0  0  0  0  0  0  0  0  0  0
    2.9900    7.6390   21.0320 H   0  0  0  0  0  0  0  0  0  0  0  0
    1.8400    6.1820   20.2180 C   0  0  0  0  0  0  0  0  0  0  0  0
    1.7610    5.3750   20.9550 H   0  0  0  0  0  0  0  0  0  0  0  0
    0.9100    6.1630   19.6380 H   0  0  0  0  0  0  0  0  0  0  0  0
    3.0220    5.9250   19.3410 C   0  0  0  0  0  0  0  0  0  0  0  0
    4.1520    5.1780   19.6110 C   0  0  0  0  0  0  0  0  0  0  0  0
    4.9390    5.2710   18.4920 N   0  0  0  0  0  0  0  0  0  0  0  0
    6.1880    4.7100   18.2350 C   0  0  0  0  0  0  0  0  0  0  0  0
    6.7790    4.9450   17.0500 C   0  0  0  0  0  0  0  0  0  0  0  0
    6.0910    5.7770   16.0730 C   0  0  0  0  0  0  0  0  0  0  0  0
    4.8820    6.3150   16.3310 C   0  0  0  0  0  0  0  0  0  0  0  0
    4.2530    6.0710   17.5850 C   0  0  0  0  0  0  0  0  0  0  0  0
    3.1000    6.4740   18.0770 N   0  0  0  0  0  0  0  0  0  0  0  0
    4.4530    4.6100   20.4790 H   0  0  0  0  0  0  0  0  0  0  0  0
    6.6350    4.1020   19.0120 H   0  0  0  0  0  0  0  0  0  0  0  0
    7.7500    4.5330   16.7990 H   0  0  0  0  0  0  0  0  0  0  0  0
    6.5830    5.9530   15.1220 H   0  0  0  0  0  0  0  0  0  0  0  0
    4.3660    6.9340   15.6050 H   0  0  0  0  0  0  0  0  0  0  0  0
  1  2  1  0  0  0  0
  2  3  2  0  0  0  0
  4  2  1  0  0  0  0
  4  8  1  0  0  0  0
  5  9  1  1  0  0  0
  5  4  1  0  0  0  0
  6 10  1  6  0  0  0
  6  5  1  0  0  0  0
  6  1  1  0  0  0  0
  7  4  1  0  0  0  0
 11 15  2  0  0  0  0
 11  6  1  0  0  0  0
 12 11  1  0  0  0  0
 13 12  2  0  0  0  0
 13 14  1  0  0  0  0
 14 18  1  0  0  0  0
 14 15  1  0  0  0  0
 15 17  1  0  0  0  0
 16 12  1  0  0  0  0
 18 19  1  0  0  0  0
 20 18  1  0  0  0  0
 21 18  1  0  0  0  0
 22  1  1  0  0  0  0
 22 24  1  0  0  0  0
 23 22  1  0  0  0  0
 25 28  1  0  0  0  0
 25 22  1  0  0  0  0
 26 25  1  0  0  0  0
 27 25  1  0  0  0  0
 28 29  1  0  0  0  0
 29 30  1  0  0  0  0
 31 29  1  0  0  0  0
 32 29  1  0  0  0  0
 33 36  1  0  0  0  0
 33  5  1  0  0  0  0
 34 33  1  0  0  0  0
 35 33  1  0  0  0  0
 36 37  1  0  0  0  0
 38 36  1  0  0  0  0
 38 39  1  0  0  0  0
 40 38  1  0  0  0  0
 41 42  2  0  0  0  0
 41 38  1  0  0  0  0
 42 50  1  0  0  0  0
 43 42  1  0  0  0  0
 44 43  1  0  0  0  0
 44 51  1  0  0  0  0
 45 44  2  0  0  0  0
 46 47  2  0  0  0  0
 46 45  1  0  0  0  0
 47 48  1  0  0  0  0
 48 49  2  0  0  0  0
 48 43  1  0  0  0  0
 49 41  1  0  0  0  0
 52 45  1  0  0  0  0
 53 46  1  0  0  0  0
 54 47  1  0  0  0  0
M  END
>  <MODEL>
21

>  <REMARK>
 VINA RESULT:    -5.992      3.232      8.771
 INTER + INTRA:         -10.096
 INTER:                  -9.384
 INTRA:                  -0.712
 UNBOUND:                -0.951
  Name = 
  10 active torsions:
  status: ('A' for Active; 'I' for Inactive)
    1  A    between atoms: C_1  and  O_2
    2  A    between atoms: O_2  and  C_3
    3  A    between atoms: C_3  and  C_4
    4  A    between atoms: C_4  and  N_5
    5  A    between atoms: C_9  and  C_10
    6  A    between atoms: C_10  and  N_11
    7  A    between atoms: N_11  and  C_12
    8  A    between atoms: C_12  and  C_13
    9  A    between atoms: C_22  and  C_23
   10  A    between atoms: N_26  and  C_27
                            x       y       z     vdW  Elec       q    Type
                         _______ _______ _______ _____ _____    ______ ____

>  <TORSDO>
F 10

$$$$
=
 OpenBabel07192307433D

 54 57  0  0  1  0  0  0  0  0999 V2000
   -0.5960   11.0150   21.4370 N   0  0  0  0  0  0  0  0  0  0  0  0
   -0.2660    9.8370   22.0980 C   0  0  0  0  0  0  0  0  0  0  0  0
   -0.6200    9.4990   23.2180 O   0  0  0  0  0  0  0  0  0  0  0  0
    0.5450    8.9710   21.1660 C   0  0  0  0  0  0  0  0  0  0  0  0
    0.9170    9.9260   20.0300 C   0  0  2  0  0  0  0  0  0  0  0  0
   -0.2310   10.9420   20.0350 C   0  0  2  0  0  0  0  0  0  0  0  0
   -0.0830    8.1360   20.8460 H   0  0  0  0  0  0  0  0  0  0  0  0
    1.4350    8.5920   21.6760 H   0  0  0  0  0  0  0  0  0  0  0  0
    1.8540   10.4230   20.3250 H   0  0  0  0  0  0  0  0  0  0  0  0
   -1.1090   10.5450   19.5120 H   0  0  0  0  0  0  0  0  0  0  0  0
    0.1370   12.2720   19.4690 C   0  0  0  0  0  0  0  0  0  0  0  0
   -0.6980   13.2400   18.8600 C   0  0  0  0  0  0  0  0  0  0  0  0
   -0.0330   14.3370   18.4890 N   0  0  0  0  0  0  0  0  0  0  0  0
    1.2320   14.0810   18.8590 N   0  0  0  0  0  0  0  0  0  0  0  0
    1.3890   12.8600   19.4440 C   0  0  0  0  0  0  0  0  0  0  0  0
   -1.7630   13.1820   18.6670 H   0  0  0  0  0  0  0  0  0  0  0  0
    2.3490   12.5170   19.8020 H   0  0  0  0  0  0  0  0  0  0  0  0
    2.2530   15.0730   18.6280 C   0  0  0  0  0  0  0  0  0  0  0  0
    2.9990   14.9930   19.4220 H   0  0  0  0  0  0  0  0  0  0  0  0
    1.8020   16.0690   18.6430 H   0  0  0  0  0  0  0  0  0  0  0  0
    2.7040   14.8820   17.6520 H   0  0  0  0  0  0  0  0  0  0  0  0
   -1.6040   11.9340   21.9620 C   0  0  0  0  0  0  0  0  0  0  0  0
   -2.3610   11.3400   22.4850 H   0  0  0  0  0  0  0  0  0  0  0  0
   -2.1090   12.4190   21.1200 H   0  0  0  0  0  0  0  0  0  0  0  0
   -1.0390   12.9900   22.9240 C   0  0  0  0  0  0  0  0  0  0  0  0
   -0.0090   12.7350   23.2030 H   0  0  0  0  0  0  0  0  0  0  0  0
   -1.6160   12.9940   23.8520 H   0  0  0  0  0  0  0  0  0  0  0  0
   -1.0880   14.3220   22.4090 O   0  0  0  0  0  0  0  0  0  0  0  0
    0.1950   14.9150   22.2640 C   0  0  0  0  0  0  0  0  0  0  0  0
    0.4550   15.0010   21.2040 H   0  0  0  0  0  0  0  0  0  0  0  0
    0.2410   15.8970   22.7380 H   0  0  0  0  0  0  0  0  0  0  0  0
    0.9280   14.2640   22.7480 H   0  0  0  0  0  0  0  0  0  0  0  0
    1.1690    9.2560   18.6750 C   0  0  0  0  0  0  0  0  0  0  0  0
    0.9010    9.9680   17.8850 H   0  0  0  0  0  0  0  0  0  0  0  0
    0.4900    8.4000   18.5880 H   0  0  0  0  0  0  0  0  0  0  0  0
    2.5560    8.8070   18.5000 N   0  0  0  0  0  0  0  0  0  0  0  0
    3.0970    9.5420   18.0440 H   0  0  0  0  0  0  0  0  0  0  0  0
    2.6350    7.6080   17.6510 C   0  0  0  0  0  0  0  0  0  0  0  0
    1.8790    7.6980   16.8620 H   0  0  0  0  0  0  0  0  0  0  0  0
    3.6040    7.5420   17.1440 H   0  0  0  0  0  0  0  0  0  0  0  0
    2.3620    6.3720   18.4460 C   0  0  0  0  0  0  0  0  0  0  0  0
    2.4570    6.1840   19.8110 C   0  0  0  0  0  0  0  0  0  0  0  0
    2.1180    4.8730   20.0330 N   0  0  0  0  0  0  0  0  0  0  0  0
    2.0540    4.1630   21.2290 C   0  0  0  0  0  0  0  0  0  0  0  0
    1.6960    2.8670   21.2020 C   0  0  0  0  0  0  0  0  0  0  0  0
    1.3840    2.2500   19.9200 C   0  0  0  0  0  0  0  0  0  0  0  0
    1.4480    2.9470   18.7670 C   0  0  0  0  0  0  0  0  0  0  0  0
    1.8300    4.3180   18.7910 C   0  0  0  0  0  0  0  0  0  0  0  0
    1.9700    5.2020   17.8260 N   0  0  0  0  0  0  0  0  0  0  0  0
    2.7310    6.8500   20.6150 H   0  0  0  0  0  0  0  0  0  0  0  0
    2.3010    4.6920   22.1410 H   0  0  0  0  0  0  0  0  0  0  0  0
    1.6300    2.2680   22.1030 H   0  0  0  0  0  0  0  0  0  0  0  0
    1.0940    1.2040   19.9180 H   0  0  0  0  0  0  0  0  0  0  0  0
    1.2150    2.4910   17.8110 H   0  0  0  0  0  0  0  0  0  0  0  0
  1 22  1  0  0  0  0
  1  2  1  0  0  0  0
  2  3  2  0  0  0  0
  4  8  1  0  0  0  0
  4  2  1  0  0  0  0
  5  6  1  0  0  0  0
  5  9  1  1  0  0  0
  5  4  1  0  0  0  0
  6 10  1  6  0  0  0
  6  1  1  0  0  0  0
  7  4  1  0  0  0  0
 11  6  1  0  0  0  0
 12 11  1  0  0  0  0
 13 14  1  0  0  0  0
 13 12  2  0  0  0  0
 14 15  1  0  0  0  0
 15 11  2  0  0  0  0
 15 17  1  0  0  0  0
 16 12  1  0  0  0  0
 18 20  1  0  0  0  0
 18 14  1  0  0  0  0
 18 19  1  0  0  0  0
 21 18  1  0  0  0  0
 22 23  1  0  0  0  0
 22 25  1  0  0  0  0
 24 22  1  0  0  0  0
 25 26  1  0  0  0  0
 25 27  1  0  0  0  0
 28 25  1  0  0  0  0
 29 28  1  0  0  0  0
 29 31  1  0  0  0  0
 29 32  1  0  0  0  0
 30 29  1  0  0  0  0
 33  5  1  0  0  0  0
 34 33  1  0  0  0  0
 35 33  1  0  0  0  0
 36 33  1  0  0  0  0
 37 36  1  0  0  0  0
 38 41  1  0  0  0  0
 38 36  1  0  0  0  0
 39 38  1  0  0  0  0
 40 38  1  0  0  0  0
 41 42  2  0  0  0  0
 42 43  1  0  0  0  0
 42 50  1  0  0  0  0
 43 44  1  0  0  0  0
 44 51  1  0  0  0  0
 45 44  2  0  0  0  0
 45 52  1  0  0  0  0
 46 45  1  0  0  0  0
 47 48  1  0  0  0  0
 47 46  2  0  0  0  0
 48 43  1  0  0  0  0
 49 41  1  0  0  0  0
 49 48  2  0  0  0  0
 53 46  1  0  0  0  0
 54 47  1  0  0  0  0
M  END
>  <MODEL>
22

>  <REMARK>
 VINA RESULT:    -5.982      3.368      8.533
 INTER + INTRA:         -10.080
 INTER:                  -9.005
 INTRA:                  -1.075
 UNBOUND:                -0.951
  Name = 
  10 active torsions:
  status: ('A' for Active; 'I' for Inactive)
    1  A    between atoms: C_1  and  O_2
    2  A    between atoms: O_2  and  C_3
    3  A    between atoms: C_3  and  C_4
    4  A    between atoms: C_4  and  N_5
    5  A    between atoms: C_9  and  C_10
    6  A    between atoms: C_10  and  N_11
    7  A    between atoms: N_11  and  C_12
    8  A    between atoms: C_12  and  C_13
    9  A    between atoms: C_22  and  C_23
   10  A    between atoms: N_26  and  C_27
                            x       y       z     vdW  Elec       q    Type
                         _______ _______ _______ _____ _____    ______ ____

>  <TORSDO>
F 10

$$$$
=
 OpenBabel07192307433D

 54 57  0  0  1  0  0  0  0  0999 V2000
   -0.5520   12.0870   20.1430 N   0  0  0  0  0  0  0  0  0  0  0  0
    0.7750   12.4830   20.2780 C   0  0  0  0  0  0  0  0  0  0  0  0
    1.2140   13.3290   21.0420 O   0  0  0  0  0  0  0  0  0  0  0  0
    1.6290   11.6240   19.3790 C   0  0  0  0  0  0  0  0  0  0  0  0
    0.6060   10.9280   18.4790 C   0  0  2  0  0  0  0  0  0  0  0  0
   -0.6520   10.8740   19.3520 C   0  0  2  0  0  0  0  0  0  0  0  0
    2.1970   10.9340   20.0090 H   0  0  0  0  0  0  0  0  0  0  0  0
    2.3150   12.2450   18.7980 H   0  0  0  0  0  0  0  0  0  0  0  0
    0.4350   11.5920   17.6190 H   0  0  0  0  0  0  0  0  0  0  0  0
   -0.6020   10.0410   20.0640 H   0  0  0  0  0  0  0  0  0  0  0  0
   -1.9230   10.8010   18.5760 C   0  0  0  0  0  0  0  0  0  0  0  0
   -2.4870    9.6940   17.8960 C   0  0  0  0  0  0  0  0  0  0  0  0
   -3.6590    9.9790   17.3240 N   0  0  0  0  0  0  0  0  0  0  0  0
   -3.8570   11.2710   17.6340 N   0  0  0  0  0  0  0  0  0  0  0  0
   -2.8480   11.8100   18.3770 C   0  0  0  0  0  0  0  0  0  0  0  0
   -2.0810    8.6930   17.7910 H   0  0  0  0  0  0  0  0  0  0  0  0
   -2.8710   12.8380   18.7090 H   0  0  0  0  0  0  0  0  0  0  0  0
   -5.0600   11.9310   17.1900 C   0  0  0  0  0  0  0  0  0  0  0  0
   -5.1530   11.7900   16.1110 H   0  0  0  0  0  0  0  0  0  0  0  0
   -4.9950   12.9980   17.4220 H   0  0  0  0  0  0  0  0  0  0  0  0
   -5.9090   11.4860   17.7130 H   0  0  0  0  0  0  0  0  0  0  0  0
   -1.5840   12.5280   21.0790 C   0  0  0  0  0  0  0  0  0  0  0  0
   -2.5140   12.6610   20.5160 H   0  0  0  0  0  0  0  0  0  0  0  0
   -1.3070   13.5140   21.4670 H   0  0  0  0  0  0  0  0  0  0  0  0
   -1.8300   11.5500   22.2370 C   0  0  0  0  0  0  0  0  0  0  0  0
   -2.2940   10.6290   21.8620 H   0  0  0  0  0  0  0  0  0  0  0  0
   -2.5400   11.9840   22.9460 H   0  0  0  0  0  0  0  0  0  0  0  0
   -0.6530   11.2320   22.9830 O   0  0  0  0  0  0  0  0  0  0  0  0
   -0.3950    9.8370   23.0570 C   0  0  0  0  0  0  0  0  0  0  0  0
   -0.6300    9.3570   22.1010 H   0  0  0  0  0  0  0  0  0  0  0  0
    0.6410    9.6320   23.3290 H   0  0  0  0  0  0  0  0  0  0  0  0
   -1.0450    9.4100   23.8260 H   0  0  0  0  0  0  0  0  0  0  0  0
    1.0510    9.5710   17.9190 C   0  0  0  0  0  0  0  0  0  0  0  0
    1.5500    9.7430   16.9590 H   0  0  0  0  0  0  0  0  0  0  0  0
    0.1530    8.9760   17.7180 H   0  0  0  0  0  0  0  0  0  0  0  0
    1.9400    8.8350   18.8260 N   0  0  0  0  0  0  0  0  0  0  0  0
    2.6300    9.4750   19.2200 H   0  0  0  0  0  0  0  0  0  0  0  0
    2.6750    7.7730   18.1210 C   0  0  0  0  0  0  0  0  0  0  0  0
    2.3610    7.7800   17.0710 H   0  0  0  0  0  0  0  0  0  0  0  0
    3.7540    7.9650   18.1240 H   0  0  0  0  0  0  0  0  0  0  0  0
    2.3700    6.4320   18.7090 C   0  0  0  0  0  0  0  0  0  0  0  0
    2.2880    6.0710   20.0390 C   0  0  0  0  0  0  0  0  0  0  0  0
    2.0020    4.7290   20.0460 N   0  0  0  0  0  0  0  0  0  0  0  0
    1.8170    3.8670   21.1230 C   0  0  0  0  0  0  0  0  0  0  0  0
    1.5440    2.5720   20.8840 C   0  0  0  0  0  0  0  0  0  0  0  0
    1.4500    2.1160   19.5040 C   0  0  0  0  0  0  0  0  0  0  0  0
    1.6300    2.9590   18.4680 C   0  0  0  0  0  0  0  0  0  0  0  0
    1.9210    4.3310   18.7160 C   0  0  0  0  0  0  0  0  0  0  0  0
    2.1390    5.3390   17.8990 N   0  0  0  0  0  0  0  0  0  0  0  0
    2.4080    6.6370   20.9510 H   0  0  0  0  0  0  0  0  0  0  0  0
    1.9030    4.2820   22.1190 H   0  0  0  0  0  0  0  0  0  0  0  0
    1.3920    1.8570   21.6850 H   0  0  0  0  0  0  0  0  0  0  0  0
    1.2260    1.0670   19.3310 H   0  0  0  0  0  0  0  0  0  0  0  0
    1.5590    2.6240   17.4400 H   0  0  0  0  0  0  0  0  0  0  0  0
  1  2  1  0  0  0  0
  1 22  1  0  0  0  0
  2  3  2  0  0  0  0
  4  7  1  0  0  0  0
  4  2  1  0  0  0  0
  5  9  1  6  0  0  0
  5  6  1  0  0  0  0
  5  4  1  0  0  0  0
  6 10  1  1  0  0  0
  6  1  1  0  0  0  0
  8  4  1  0  0  0  0
 11  6  1  0  0  0  0
 12 11  1  0  0  0  0
 13 14  1  0  0  0  0
 13 12  2  0  0  0  0
 14 15  1  0  0  0  0
 15 11  2  0  0  0  0
 15 17  1  0  0  0  0
 16 12  1  0  0  0  0
 18 20  1  0  0  0  0
 18 14  1  0  0  0  0
 18 21  1  0  0  0  0
 19 18  1  0  0  0  0
 22 24  1  0  0  0  0
 22 25  1  0  0  0  0
 23 22  1  0  0  0  0
 25 27  1  0  0  0  0
 25 28  1  0  0  0  0
 26 25  1  0  0  0  0
 28 29  1  0  0  0  0
 29 31  1  0  0  0  0
 29 32  1  0  0  0  0
 30 29  1  0  0  0  0
 33  5  1  0  0  0  0
 33 36  1  0  0  0  0
 34 33  1  0  0  0  0
 35 33  1  0  0  0  0
 36 37  1  0  0  0  0
 38 40  1  0  0  0  0
 38 41  1  0  0  0  0
 38 36  1  0  0  0  0
 39 38  1  0  0  0  0
 41 42  2  0  0  0  0
 42 43  1  0  0  0  0
 42 50  1  0  0  0  0
 43 44  1  0  0  0  0
 44 51  1  0  0  0  0
 45 44  2  0  0  0  0
 45 52  1  0  0  0  0
 46 45  1  0  0  0  0
 47 48  1  0  0  0  0
 47 46  2  0  0  0  0
 48 43  1  0  0  0  0
 49 41  1  0  0  0  0
 49 48  2  0  0  0  0
 53 46  1  0  0  0  0
 54 47  1  0  0  0  0
M  END
>  <MODEL>
23

>  <REMARK>
 VINA RESULT:    -5.940      3.630      8.560
 INTER + INTRA:         -10.016
 INTER:                  -9.515
 INTRA:                  -0.502
 UNBOUND:                -0.951
  Name = 
  10 active torsions:
  status: ('A' for Active; 'I' for Inactive)
    1  A    between atoms: C_1  and  O_2
    2  A    between atoms: O_2  and  C_3
    3  A    between atoms: C_3  and  C_4
    4  A    between atoms: C_4  and  N_5
    5  A    between atoms: C_9  and  C_10
    6  A    between atoms: C_10  and  N_11
    7  A    between atoms: N_11  and  C_12
    8  A    between atoms: C_12  and  C_13
    9  A    between atoms: C_22  and  C_23
   10  A    between atoms: N_26  and  C_27
                            x       y       z     vdW  Elec       q    Type
                         _______ _______ _______ _____ _____    ______ ____

>  <TORSDO>
F 10

$$$$
=
 OpenBabel07192307433D

 54 57  0  0  1  0  0  0  0  0999 V2000
    3.8370    5.4070   17.3070 N   0  0  0  0  0  0  0  0  0  0  0  0
    4.6060    6.5320   17.0290 C   0  0  0  0  0  0  0  0  0  0  0  0
    5.6290    6.5760   16.3620 O   0  0  0  0  0  0  0  0  0  0  0  0
    3.9200    7.7420   17.6130 C   0  0  0  0  0  0  0  0  0  0  0  0
    2.8580    7.1360   18.5330 C   0  0  2  0  0  0  0  0  0  0  0  0
    2.5580    5.7820   17.8810 C   0  0  2  0  0  0  0  0  0  0  0  0
    3.5020    8.3260   16.7890 H   0  0  0  0  0  0  0  0  0  0  0  0
    4.6340    8.3500   18.1740 H   0  0  0  0  0  0  0  0  0  0  0  0
    3.3360    6.9800   19.5120 H   0  0  0  0  0  0  0  0  0  0  0  0
    1.8670    5.8960   17.0370 H   0  0  0  0  0  0  0  0  0  0  0  0
    2.0340    4.7580   18.8300 C   0  0  0  0  0  0  0  0  0  0  0  0
    1.0350    3.7780   18.6150 C   0  0  0  0  0  0  0  0  0  0  0  0
    0.8330    3.0020   19.6830 N   0  0  0  0  0  0  0  0  0  0  0  0
    1.7030    3.4770   20.5890 N   0  0  0  0  0  0  0  0  0  0  0  0
    2.4410    4.5280   20.1310 C   0  0  0  0  0  0  0  0  0  0  0  0
    0.4420    3.6070   17.7230 H   0  0  0  0  0  0  0  0  0  0  0  0
    3.1890    5.0110   20.7450 H   0  0  0  0  0  0  0  0  0  0  0  0
    1.7830    2.8580   21.8890 C   0  0  0  0  0  0  0  0  0  0  0  0
    2.5070    2.0420   21.8390 H   0  0  0  0  0  0  0  0  0  0  0  0
    0.8000    2.4670   22.1660 H   0  0  0  0  0  0  0  0  0  0  0  0
    2.1020    3.6140   22.6110 H   0  0  0  0  0  0  0  0  0  0  0  0
    4.0800    4.1280   16.6430 C   0  0  0  0  0  0  0  0  0  0  0  0
    4.8320    4.2900   15.8630 H   0  0  0  0  0  0  0  0  0  0  0  0
    3.1610    3.8160   16.1360 H   0  0  0  0  0  0  0  0  0  0  0  0
    4.5680    3.0210   17.5900 C   0  0  0  0  0  0  0  0  0  0  0  0
    4.7520    3.4330   18.5900 H   0  0  0  0  0  0  0  0  0  0  0  0
    5.5250    2.6270   17.2390 H   0  0  0  0  0  0  0  0  0  0  0  0
    3.6780    1.9060   17.6790 O   0  0  0  0  0  0  0  0  0  0  0  0
    3.8440    1.1490   18.8700 C   0  0  0  0  0  0  0  0  0  0  0  0
    2.9410    1.2110   19.4870 H   0  0  0  0  0  0  0  0  0  0  0  0
    4.0750    0.1050   18.6550 H   0  0  0  0  0  0  0  0  0  0  0  0
    4.6760    1.5780   19.4330 H   0  0  0  0  0  0  0  0  0  0  0  0
    1.6250    8.0160   18.7690 C   0  0  0  0  0  0  0  0  0  0  0  0
    1.6580    8.3850   19.8000 H   0  0  0  0  0  0  0  0  0  0  0  0
    0.7350    7.3840   18.6760 H   0  0  0  0  0  0  0  0  0  0  0  0
    1.5320    9.1430   17.8330 N   0  0  0  0  0  0  0  0  0  0  0  0
    2.3690    9.1710   17.2490 H   0  0  0  0  0  0  0  0  0  0  0  0
    1.4440   10.4300   18.5410 C   0  0  0  0  0  0  0  0  0  0  0  0
    1.9100   10.3110   19.5260 H   0  0  0  0  0  0  0  0  0  0  0  0
    2.0120   11.2100   18.0220 H   0  0  0  0  0  0  0  0  0  0  0  0
    0.0180   10.8420   18.7260 C   0  0  0  0  0  0  0  0  0  0  0  0
   -1.0840   10.5000   17.9670 C   0  0  0  0  0  0  0  0  0  0  0  0
   -2.1490   11.1490   18.5400 N   0  0  0  0  0  0  0  0  0  0  0  0
   -3.4910   11.1510   18.1700 C   0  0  0  0  0  0  0  0  0  0  0  0
   -4.3660   11.8750   18.8900 C   0  0  0  0  0  0  0  0  0  0  0  0
   -3.8800   12.6300   20.0370 C   0  0  0  0  0  0  0  0  0  0  0  0
   -2.5780   12.6200   20.3870 C   0  0  0  0  0  0  0  0  0  0  0  0
   -1.6470   11.8580   19.6260 C   0  0  0  0  0  0  0  0  0  0  0  0
   -0.3480   11.6860   19.7540 N   0  0  0  0  0  0  0  0  0  0  0  0
   -1.1960    9.8730   17.0950 H   0  0  0  0  0  0  0  0  0  0  0  0
   -3.7740   10.5640   17.3060 H   0  0  0  0  0  0  0  0  0  0  0  0
   -5.4220   11.9120   18.6450 H   0  0  0  0  0  0  0  0  0  0  0  0
   -4.6020   13.2060   20.6070 H   0  0  0  0  0  0  0  0  0  0  0  0
   -2.2130   13.1800   21.2410 H   0  0  0  0  0  0  0  0  0  0  0  0
  1  6  1  0  0  0  0
  2  1  1  0  0  0  0
  2  4  1  0  0  0  0
  3  2  2  0  0  0  0
  4  8  1  0  0  0  0
  4  5  1  0  0  0  0
  5 33  1  0  0  0  0
  5  9  1  1  0  0  0
  6 10  1  6  0  0  0
  6  5  1  0  0  0  0
  6 11  1  0  0  0  0
  7  4  1  0  0  0  0
 11 15  2  0  0  0  0
 12 11  1  0  0  0  0
 12 13  2  0  0  0  0
 13 14  1  0  0  0  0
 14 18  1  0  0  0  0
 15 14  1  0  0  0  0
 15 17  1  0  0  0  0
 16 12  1  0  0  0  0
 18 20  1  0  0  0  0
 18 21  1  0  0  0  0
 19 18  1  0  0  0  0
 22  1  1  0  0  0  0
 22 25  1  0  0  0  0
 23 22  1  0  0  0  0
 24 22  1  0  0  0  0
 25 28  1  0  0  0  0
 25 26  1  0  0  0  0
 27 25  1  0  0  0  0
 28 29  1  0  0  0  0
 29 32  1  0  0  0  0
 29 30  1  0  0  0  0
 31 29  1  0  0  0  0
 33 34  1  0  0  0  0
 35 33  1  0  0  0  0
 36 38  1  0  0  0  0
 36 33  1  0  0  0  0
 37 36  1  0  0  0  0
 38 41  1  0  0  0  0
 38 39  1  0  0  0  0
 40 38  1  0  0  0  0
 41 49  1  0  0  0  0
 42 43  1  0  0  0  0
 42 41  2  0  0  0  0
 43 48  1  0  0  0  0
 44 43  1  0  0  0  0
 44 45  2  0  0  0  0
 45 46  1  0  0  0  0
 46 47  2  0  0  0  0
 46 53  1  0  0  0  0
 47 54  1  0  0  0  0
 48 49  2  0  0  0  0
 48 47  1  0  0  0  0
 50 42  1  0  0  0  0
 51 44  1  0  0  0  0
 52 45  1  0  0  0  0
M  END
>  <MODEL>
24

>  <REMARK>
 VINA RESULT:    -5.916      2.393      4.106
 INTER + INTRA:          -9.980
 INTER:                  -9.070
 INTRA:                  -0.910
 UNBOUND:                -0.951
  Name = 
  10 active torsions:
  status: ('A' for Active; 'I' for Inactive)
    1  A    between atoms: C_1  and  O_2
    2  A    between atoms: O_2  and  C_3
    3  A    between atoms: C_3  and  C_4
    4  A    between atoms: C_4  and  N_5
    5  A    between atoms: C_9  and  C_10
    6  A    between atoms: C_10  and  N_11
    7  A    between atoms: N_11  and  C_12
    8  A    between atoms: C_12  and  C_13
    9  A    between atoms: C_22  and  C_23
   10  A    between atoms: N_26  and  C_27
                            x       y       z     vdW  Elec       q    Type
                         _______ _______ _______ _____ _____    ______ ____

>  <TORSDO>
F 10

$$$$
=
 OpenBabel07192307433D

 54 57  0  0  1  0  0  0  0  0999 V2000
    4.7340    5.3000   17.6800 N   0  0  0  0  0  0  0  0  0  0  0  0
    5.4320    6.4930   17.5310 C   0  0  0  0  0  0  0  0  0  0  0  0
    6.6250    6.6230   17.3010 O   0  0  0  0  0  0  0  0  0  0  0  0
    4.4530    7.6380   17.6080 C   0  0  0  0  0  0  0  0  0  0  0  0
    3.1810    6.9810   18.1470 C   0  0  2  0  0  0  0  0  0  0  0  0
    3.3020    5.5320   17.6620 C   0  0  2  0  0  0  0  0  0  0  0  0
    4.3370    8.0530   16.6030 H   0  0  0  0  0  0  0  0  0  0  0  0
    4.8220    8.4100   18.2880 H   0  0  0  0  0  0  0  0  0  0  0  0
    3.2470    7.0120   19.2450 H   0  0  0  0  0  0  0  0  0  0  0  0
    2.9920    5.4410   16.6130 H   0  0  0  0  0  0  0  0  0  0  0  0
    2.5520    4.5510   18.4970 C   0  0  0  0  0  0  0  0  0  0  0  0
    1.6030    3.5810   18.0920 C   0  0  0  0  0  0  0  0  0  0  0  0
    1.1470    2.8460   19.1100 N   0  0  0  0  0  0  0  0  0  0  0  0
    1.8010    3.3390   20.1750 N   0  0  0  0  0  0  0  0  0  0  0  0
    2.6480    4.3610   19.8640 C   0  0  0  0  0  0  0  0  0  0  0  0
    1.2240    3.3880   17.0950 H   0  0  0  0  0  0  0  0  0  0  0  0
    3.2500    4.8520   20.6160 H   0  0  0  0  0  0  0  0  0  0  0  0
    1.5700    2.7650   21.4770 C   0  0  0  0  0  0  0  0  0  0  0  0
    0.5090    2.5200   21.5640 H   0  0  0  0  0  0  0  0  0  0  0  0
    1.8480    3.4890   22.2480 H   0  0  0  0  0  0  0  0  0  0  0  0
    2.1830    1.8650   21.5700 H   0  0  0  0  0  0  0  0  0  0  0  0
    5.3470    4.0090   17.3760 C   0  0  0  0  0  0  0  0  0  0  0  0
    4.7120    3.2250   17.8040 H   0  0  0  0  0  0  0  0  0  0  0  0
    6.3120    3.9490   17.8910 H   0  0  0  0  0  0  0  0  0  0  0  0
    5.5290    3.7470   15.8740 C   0  0  0  0  0  0  0  0  0  0  0  0
    4.7970    4.3280   15.2980 H   0  0  0  0  0  0  0  0  0  0  0  0
    5.3280    2.6960   15.6530 H   0  0  0  0  0  0  0  0  0  0  0  0
    6.8490    4.0190   15.3970 O   0  0  0  0  0  0  0  0  0  0  0  0
    6.8680    4.8000   14.2110 C   0  0  0  0  0  0  0  0  0  0  0  0
    6.3880    5.7690   14.3880 H   0  0  0  0  0  0  0  0  0  0  0  0
    7.8840    4.9520   13.8450 H   0  0  0  0  0  0  0  0  0  0  0  0
    6.3000    4.2690   13.4430 H   0  0  0  0  0  0  0  0  0  0  0  0
    1.8730    7.6770   17.7530 C   0  0  0  0  0  0  0  0  0  0  0  0
    1.0480    7.1740   18.2700 H   0  0  0  0  0  0  0  0  0  0  0  0
    1.7220    7.5320   16.6770 H   0  0  0  0  0  0  0  0  0  0  0  0
    1.8650    9.1120   18.0660 N   0  0  0  0  0  0  0  0  0  0  0  0
    2.8250    9.4480   18.1450 H   0  0  0  0  0  0  0  0  0  0  0  0
    1.1950    9.3830   19.3470 C   0  0  0  0  0  0  0  0  0  0  0  0
    0.3120    8.7360   19.4150 H   0  0  0  0  0  0  0  0  0  0  0  0
    1.8360    9.1220   20.1960 H   0  0  0  0  0  0  0  0  0  0  0  0
    0.7570   10.8110   19.4290 C   0  0  0  0  0  0  0  0  0  0  0  0
   -0.3950   11.3300   19.9870 C   0  0  0  0  0  0  0  0  0  0  0  0
   -0.3290   12.6860   19.7870 N   0  0  0  0  0  0  0  0  0  0  0  0
   -1.2330   13.6810   20.1500 C   0  0  0  0  0  0  0  0  0  0  0  0
   -0.9540   14.9600   19.8410 C   0  0  0  0  0  0  0  0  0  0  0  0
    0.2850   15.2610   19.1380 C   0  0  0  0  0  0  0  0  0  0  0  0
    1.1540   14.2900   18.7920 C   0  0  0  0  0  0  0  0  0  0  0  0
    0.8620   12.9340   19.1140 C   0  0  0  0  0  0  0  0  0  0  0  0
    1.5280   11.8200   18.8910 N   0  0  0  0  0  0  0  0  0  0  0  0
   -1.2290   10.8640   20.4900 H   0  0  0  0  0  0  0  0  0  0  0  0
   -2.1320   13.3780   20.6700 H   0  0  0  0  0  0  0  0  0  0  0  0
   -1.6230   15.7740   20.0990 H   0  0  0  0  0  0  0  0  0  0  0  0
    0.4940   16.2990   18.9000 H   0  0  0  0  0  0  0  0  0  0  0  0
    2.0780   14.5100   18.2700 H   0  0  0  0  0  0  0  0  0  0  0  0
  2  4  1  0  0  0  0
  2  1  1  0  0  0  0
  3  2  2  0  0  0  0
  4  5  1  0  0  0  0
  4  8  1  0  0  0  0
  5  9  1  1  0  0  0
  6 10  1  6  0  0  0
  6  1  1  0  0  0  0
  6  5  1  0  0  0  0
  6 11  1  0  0  0  0
  7  4  1  0  0  0  0
 11 15  2  0  0  0  0
 12 11  1  0  0  0  0
 12 13  2  0  0  0  0
 13 14  1  0  0  0  0
 14 18  1  0  0  0  0
 15 14  1  0  0  0  0
 15 17  1  0  0  0  0
 16 12  1  0  0  0  0
 18 19  1  0  0  0  0
 18 21  1  0  0  0  0
 18 20  1  0  0  0  0
 22  1  1  0  0  0  0
 22 23  1  0  0  0  0
 22 24  1  0  0  0  0
 25 22  1  0  0  0  0
 26 25  1  0  0  0  0
 27 25  1  0  0  0  0
 28 25  1  0  0  0  0
 29 30  1  0  0  0  0
 29 28  1  0  0  0  0
 31 29  1  0  0  0  0
 32 29  1  0  0  0  0
 33 36  1  0  0  0  0
 33  5  1  0  0  0  0
 33 34  1  0  0  0  0
 35 33  1  0  0  0  0
 36 37  1  0  0  0  0
 36 38  1  0  0  0  0
 38 39  1  0  0  0  0
 38 41  1  0  0  0  0
 38 40  1  0  0  0  0
 41 42  2  0  0  0  0
 42 50  1  0  0  0  0
 43 42  1  0  0  0  0
 43 44  1  0  0  0  0
 44 51  1  0  0  0  0
 45 52  1  0  0  0  0
 45 44  2  0  0  0  0
 46 45  1  0  0  0  0
 47 48  1  0  0  0  0
 47 46  2  0  0  0  0
 48 43  1  0  0  0  0
 49 48  2  0  0  0  0
 49 41  1  0  0  0  0
 53 46  1  0  0  0  0
 54 47  1  0  0  0  0
M  END
>  <MODEL>
25

>  <REMARK>
 VINA RESULT:    -5.850      2.400      4.330
 INTER + INTRA:          -9.878
 INTER:                  -9.025
 INTRA:                  -0.853
 UNBOUND:                -0.951
  Name = 
  10 active torsions:
  status: ('A' for Active; 'I' for Inactive)
    1  A    between atoms: C_1  and  O_2
    2  A    between atoms: O_2  and  C_3
    3  A    between atoms: C_3  and  C_4
    4  A    between atoms: C_4  and  N_5
    5  A    between atoms: C_9  and  C_10
    6  A    between atoms: C_10  and  N_11
    7  A    between atoms: N_11  and  C_12
    8  A    between atoms: C_12  and  C_13
    9  A    between atoms: C_22  and  C_23
   10  A    between atoms: N_26  and  C_27
                            x       y       z     vdW  Elec       q    Type
                         _______ _______ _______ _____ _____    ______ ____

>  <TORSDO>
F 10

$$$$
=
 OpenBabel07192307433D

 54 57  0  0  1  0  0  0  0  0999 V2000
    3.8950    5.3180   17.2680 N   0  0  0  0  0  0  0  0  0  0  0  0
    4.6800    6.4190   16.9440 C   0  0  0  0  0  0  0  0  0  0  0  0
    5.7010    6.4220   16.2730 O   0  0  0  0  0  0  0  0  0  0  0  0
    4.0160    7.6610   17.4850 C   0  0  0  0  0  0  0  0  0  0  0  0
    2.9480    7.1090   18.4310 C   0  0  2  0  0  0  0  0  0  0  0  0
    2.6240    5.7350   17.8320 C   0  0  2  0  0  0  0  0  0  0  0  0
    3.6030    8.2200   16.6400 H   0  0  0  0  0  0  0  0  0  0  0  0
    4.7410    8.2790   18.0190 H   0  0  0  0  0  0  0  0  0  0  0  0
    3.4280    6.9820   19.4140 H   0  0  0  0  0  0  0  0  0  0  0  0
    1.9320    5.8280   16.9870 H   0  0  0  0  0  0  0  0  0  0  0  0
    2.0880    4.7570   18.8210 C   0  0  0  0  0  0  0  0  0  0  0  0
    1.0450    3.8120   18.6600 C   0  0  0  0  0  0  0  0  0  0  0  0
    0.8440    3.0720   19.7530 N   0  0  0  0  0  0  0  0  0  0  0  0
    1.7570    3.5340   20.6220 N   0  0  0  0  0  0  0  0  0  0  0  0
    2.5230    4.5430   20.1170 C   0  0  0  0  0  0  0  0  0  0  0  0
    0.4210    3.6430   17.7900 H   0  0  0  0  0  0  0  0  0  0  0  0
    3.3060    5.0110   20.6960 H   0  0  0  0  0  0  0  0  0  0  0  0
    1.8510    2.9450   21.9350 C   0  0  0  0  0  0  0  0  0  0  0  0
    2.5400    2.0990   21.8860 H   0  0  0  0  0  0  0  0  0  0  0  0
    0.8620    2.6000   22.2490 H   0  0  0  0  0  0  0  0  0  0  0  0
    2.2190    3.7050   22.6270 H   0  0  0  0  0  0  0  0  0  0  0  0
    4.1140    4.0110   16.6530 C   0  0  0  0  0  0  0  0  0  0  0  0
    4.8750    4.1290   15.8730 H   0  0  0  0  0  0  0  0  0  0  0  0
    3.1920    3.7000   16.1500 H   0  0  0  0  0  0  0  0  0  0  0  0
    4.5710    2.9290   17.6430 C   0  0  0  0  0  0  0  0  0  0  0  0
    4.7320    3.3680   18.6360 H   0  0  0  0  0  0  0  0  0  0  0  0
    5.5350    2.5200   17.3290 H   0  0  0  0  0  0  0  0  0  0  0  0
    3.6720    1.8220   17.7410 O   0  0  0  0  0  0  0  0  0  0  0  0
    3.8320    1.0730   18.9380 C   0  0  0  0  0  0  0  0  0  0  0  0
    2.9300    1.1470   19.5540 H   0  0  0  0  0  0  0  0  0  0  0  0
    4.0550    0.0250   18.7310 H   0  0  0  0  0  0  0  0  0  0  0  0
    4.6680    1.5000   19.4980 H   0  0  0  0  0  0  0  0  0  0  0  0
    1.7300    8.0160   18.6370 C   0  0  0  0  0  0  0  0  0  0  0  0
    1.7810    8.4340   19.6490 H   0  0  0  0  0  0  0  0  0  0  0  0
    0.8300    7.3930   18.5850 H   0  0  0  0  0  0  0  0  0  0  0  0
    1.6410    9.0980   17.6480 N   0  0  0  0  0  0  0  0  0  0  0  0
    2.3150    8.9310   16.9000 H   0  0  0  0  0  0  0  0  0  0  0  0
    1.9580   10.4060   18.2450 C   0  0  0  0  0  0  0  0  0  0  0  0
    2.8780   10.2990   18.8330 H   0  0  0  0  0  0  0  0  0  0  0  0
    2.1690   11.1550   17.4740 H   0  0  0  0  0  0  0  0  0  0  0  0
    0.8570   10.8620   19.1470 C   0  0  0  0  0  0  0  0  0  0  0  0
   -0.3370   11.4700   18.8120 C   0  0  0  0  0  0  0  0  0  0  0  0
   -0.9850   11.7020   19.9990 N   0  0  0  0  0  0  0  0  0  0  0  0
   -2.2230   12.2950   20.2340 C   0  0  0  0  0  0  0  0  0  0  0  0
   -2.6580   12.4200   21.5000 C   0  0  0  0  0  0  0  0  0  0  0  0
   -1.8190   11.9290   22.5840 C   0  0  0  0  0  0  0  0  0  0  0  0
   -0.6220   11.3560   22.3460 C   0  0  0  0  0  0  0  0  0  0  0  0
   -0.1560   11.2230   21.0080 C   0  0  0  0  0  0  0  0  0  0  0  0
    0.9550   10.7150   20.5160 N   0  0  0  0  0  0  0  0  0  0  0  0
   -0.7640   11.7510   17.8610 H   0  0  0  0  0  0  0  0  0  0  0  0
   -2.7880   12.6340   19.3750 H   0  0  0  0  0  0  0  0  0  0  0  0
   -3.6130   12.8740   21.7390 H   0  0  0  0  0  0  0  0  0  0  0  0
   -2.1880   12.0370   23.5990 H   0  0  0  0  0  0  0  0  0  0  0  0
    0.0050   10.9880   23.1510 H   0  0  0  0  0  0  0  0  0  0  0  0
  1  6  1  0  0  0  0
  2  1  1  0  0  0  0
  2  4  1  0  0  0  0
  3  2  2  0  0  0  0
  4  8  1  0  0  0  0
  4  5  1  0  0  0  0
  5 33  1  0  0  0  0
  5  9  1  1  0  0  0
  6 10  1  6  0  0  0
  6  5  1  0  0  0  0
  6 11  1  0  0  0  0
  7  4  1  0  0  0  0
 11 15  2  0  0  0  0
 12 11  1  0  0  0  0
 12 13  2  0  0  0  0
 13 14  1  0  0  0  0
 14 18  1  0  0  0  0
 15 14  1  0  0  0  0
 15 17  1  0  0  0  0
 16 12  1  0  0  0  0
 18 20  1  0  0  0  0
 18 21  1  0  0  0  0
 19 18  1  0  0  0  0
 22  1  1  0  0  0  0
 22 25  1  0  0  0  0
 23 22  1  0  0  0  0
 24 22  1  0  0  0  0
 25 28  1  0  0  0  0
 25 26  1  0  0  0  0
 27 25  1  0  0  0  0
 28 29  1  0  0  0  0
 29 32  1  0  0  0  0
 29 30  1  0  0  0  0
 31 29  1  0  0  0  0
 33 34  1  0  0  0  0
 35 33  1  0  0  0  0
 36 38  1  0  0  0  0
 36 33  1  0  0  0  0
 37 36  1  0  0  0  0
 38 39  1  0  0  0  0
 38 41  1  0  0  0  0
 40 38  1  0  0  0  0
 41 49  1  0  0  0  0
 42 41  2  0  0  0  0
 42 43  1  0  0  0  0
 43 44  1  0  0  0  0
 43 48  1  0  0  0  0
 44 45  2  0  0  0  0
 45 52  1  0  0  0  0
 45 46  1  0  0  0  0
 46 53  1  0  0  0  0
 47 46  2  0  0  0  0
 47 54  1  0  0  0  0
 48 47  1  0  0  0  0
 49 48  2  0  0  0  0
 50 42  1  0  0  0  0
 51 44  1  0  0  0  0
M  END
>  <MODEL>
26

>  <REMARK>
 VINA RESULT:    -5.842      1.836      3.619
 INTER + INTRA:          -9.867
 INTER:                  -9.031
 INTRA:                  -0.836
 UNBOUND:                -0.951
  Name = 
  10 active torsions:
  status: ('A' for Active; 'I' for Inactive)
    1  A    between atoms: C_1  and  O_2
    2  A    between atoms: O_2  and  C_3
    3  A    between atoms: C_3  and  C_4
    4  A    between atoms: C_4  and  N_5
    5  A    between atoms: C_9  and  C_10
    6  A    between atoms: C_10  and  N_11
    7  A    between atoms: N_11  and  C_12
    8  A    between atoms: C_12  and  C_13
    9  A    between atoms: C_22  and  C_23
   10  A    between atoms: N_26  and  C_27
                            x       y       z     vdW  Elec       q    Type
                         _______ _______ _______ _____ _____    ______ ____

>  <TORSDO>
F 10

$$$$
=
 OpenBabel07192307433D

 54 57  0  0  1  0  0  0  0  0999 V2000
    4.6020    5.2840   17.6230 N   0  0  0  0  0  0  0  0  0  0  0  0
    5.3090    6.4750   17.5050 C   0  0  0  0  0  0  0  0  0  0  0  0
    6.4790    6.6050   17.1780 O   0  0  0  0  0  0  0  0  0  0  0  0
    4.3660    7.6240   17.7610 C   0  0  0  0  0  0  0  0  0  0  0  0
    3.1340    6.9440   18.3610 C   0  0  2  0  0  0  0  0  0  0  0  0
    3.1790    5.5370   17.7540 C   0  0  2  0  0  0  0  0  0  0  0  0
    4.1690    8.1210   16.8070 H   0  0  0  0  0  0  0  0  0  0  0  0
    4.8120    8.3330   18.4640 H   0  0  0  0  0  0  0  0  0  0  0  0
    3.3000    6.8850   19.4480 H   0  0  0  0  0  0  0  0  0  0  0  0
    2.7740    5.5360   16.7340 H   0  0  0  0  0  0  0  0  0  0  0  0
    2.4860    4.5030   18.5750 C   0  0  0  0  0  0  0  0  0  0  0  0
    1.5970    3.4840   18.1540 C   0  0  0  0  0  0  0  0  0  0  0  0
    1.1820    2.7110   19.1610 N   0  0  0  0  0  0  0  0  0  0  0  0
    1.8040    3.2270   20.2340 N   0  0  0  0  0  0  0  0  0  0  0  0
    2.5910    4.3010   19.9390 C   0  0  0  0  0  0  0  0  0  0  0  0
    1.2320    3.2830   17.1540 H   0  0  0  0  0  0  0  0  0  0  0  0
    3.1600    4.8170   20.6990 H   0  0  0  0  0  0  0  0  0  0  0  0
    1.6040    2.6230   21.5280 C   0  0  0  0  0  0  0  0  0  0  0  0
    2.4250    1.9270   21.7150 H   0  0  0  0  0  0  0  0  0  0  0  0
    0.6520    2.0860   21.5350 H   0  0  0  0  0  0  0  0  0  0  0  0
    1.5920    3.4160   22.2800 H   0  0  0  0  0  0  0  0  0  0  0  0
    5.1560    4.0130   17.1630 C   0  0  0  0  0  0  0  0  0  0  0  0
    4.5840    3.2050   17.6330 H   0  0  0  0  0  0  0  0  0  0  0  0
    6.1850    3.9250   17.5300 H   0  0  0  0  0  0  0  0  0  0  0  0
    5.1190    3.8350   15.6380 C   0  0  0  0  0  0  0  0  0  0  0  0
    4.6190    4.6930   15.1700 H   0  0  0  0  0  0  0  0  0  0  0  0
    4.5250    2.9550   15.3800 H   0  0  0  0  0  0  0  0  0  0  0  0
    6.4070    3.6440   15.0480 O   0  0  0  0  0  0  0  0  0  0  0  0
    6.8430    4.7550   14.2780 C   0  0  0  0  0  0  0  0  0  0  0  0
    6.3240    5.6640   14.5980 H   0  0  0  0  0  0  0  0  0  0  0  0
    7.9220    4.8970   14.3510 H   0  0  0  0  0  0  0  0  0  0  0  0
    6.5900    4.5640   13.2310 H   0  0  0  0  0  0  0  0  0  0  0  0
    1.8120    7.6880   18.1460 C   0  0  0  0  0  0  0  0  0  0  0  0
    0.9920    6.9670   18.2430 H   0  0  0  0  0  0  0  0  0  0  0  0
    1.7970    8.0630   17.1160 H   0  0  0  0  0  0  0  0  0  0  0  0
    1.6170    8.8030   19.0810 N   0  0  0  0  0  0  0  0  0  0  0  0
    1.1340    8.4670   19.9150 H   0  0  0  0  0  0  0  0  0  0  0  0
    0.7900    9.8680   18.4900 C   0  0  0  0  0  0  0  0  0  0  0  0
    0.8630    9.7910   17.3990 H   0  0  0  0  0  0  0  0  0  0  0  0
   -0.2680    9.7360   18.7410 H   0  0  0  0  0  0  0  0  0  0  0  0
    1.2750   11.2170   18.9140 C   0  0  0  0  0  0  0  0  0  0  0  0
    0.9230   11.9500   20.0310 C   0  0  0  0  0  0  0  0  0  0  0  0
    1.6320   13.1220   19.9490 N   0  0  0  0  0  0  0  0  0  0  0  0
    1.6470   14.2130   20.8140 C   0  0  0  0  0  0  0  0  0  0  0  0
    2.4290   15.2670   20.5220 C   0  0  0  0  0  0  0  0  0  0  0  0
    3.2380   15.2300   19.3120 C   0  0  0  0  0  0  0  0  0  0  0  0
    3.2170   14.1690   18.4810 C   0  0  0  0  0  0  0  0  0  0  0  0
    2.3880   13.0510   18.7840 C   0  0  0  0  0  0  0  0  0  0  0  0
    2.1870   11.9160   18.1490 N   0  0  0  0  0  0  0  0  0  0  0  0
    0.2470   11.7440   20.8480 H   0  0  0  0  0  0  0  0  0  0  0  0
    1.0180   14.1640   21.6940 H   0  0  0  0  0  0  0  0  0  0  0  0
    2.4780   16.1420   21.1610 H   0  0  0  0  0  0  0  0  0  0  0  0
    3.8650   16.0900   19.0950 H   0  0  0  0  0  0  0  0  0  0  0  0
    3.8180   14.1370   17.5790 H   0  0  0  0  0  0  0  0  0  0  0  0
  1  6  1  0  0  0  0
  2  1  1  0  0  0  0
  2  4  1  0  0  0  0
  3  2  2  0  0  0  0
  4  5  1  0  0  0  0
  4  8  1  0  0  0  0
  5  9  1  1  0  0  0
  6 10  1  6  0  0  0
  6  5  1  0  0  0  0
  6 11  1  0  0  0  0
  7  4  1  0  0  0  0
 11 15  2  0  0  0  0
 12 11  1  0  0  0  0
 12 13  2  0  0  0  0
 13 14  1  0  0  0  0
 14 18  1  0  0  0  0
 15 14  1  0  0  0  0
 15 17  1  0  0  0  0
 16 12  1  0  0  0  0
 18 20  1  0  0  0  0
 18 19  1  0  0  0  0
 18 21  1  0  0  0  0
 22 24  1  0  0  0  0
 22  1  1  0  0  0  0
 22 23  1  0  0  0  0
 25 22  1  0  0  0  0
 26 25  1  0  0  0  0
 27 25  1  0  0  0  0
 28 25  1  0  0  0  0
 29 31  1  0  0  0  0
 29 30  1  0  0  0  0
 29 28  1  0  0  0  0
 32 29  1  0  0  0  0
 33 34  1  0  0  0  0
 33  5  1  0  0  0  0
 33 36  1  0  0  0  0
 35 33  1  0  0  0  0
 36 37  1  0  0  0  0
 38 40  1  0  0  0  0
 38 41  1  0  0  0  0
 38 36  1  0  0  0  0
 39 38  1  0  0  0  0
 41 42  2  0  0  0  0
 42 50  1  0  0  0  0
 43 42  1  0  0  0  0
 43 44  1  0  0  0  0
 44 51  1  0  0  0  0
 45 44  2  0  0  0  0
 45 52  1  0  0  0  0
 46 45  1  0  0  0  0
 47 48  1  0  0  0  0
 47 46  2  0  0  0  0
 48 43  1  0  0  0  0
 49 48  2  0  0  0  0
 49 41  1  0  0  0  0
 53 46  1  0  0  0  0
 54 47  1  0  0  0  0
M  END
>  <MODEL>
27

>  <REMARK>
 VINA RESULT:    -5.842      2.633      4.558
 INTER + INTRA:          -9.866
 INTER:                  -8.988
 INTRA:                  -0.878
 UNBOUND:                -0.951
  Name = 
  10 active torsions:
  status: ('A' for Active; 'I' for Inactive)
    1  A    between atoms: C_1  and  O_2
    2  A    between atoms: O_2  and  C_3
    3  A    between atoms: C_3  and  C_4
    4  A    between atoms: C_4  and  N_5
    5  A    between atoms: C_9  and  C_10
    6  A    between atoms: C_10  and  N_11
    7  A    between atoms: N_11  and  C_12
    8  A    between atoms: C_12  and  C_13
    9  A    between atoms: C_22  and  C_23
   10  A    between atoms: N_26  and  C_27
                            x       y       z     vdW  Elec       q    Type
                         _______ _______ _______ _____ _____    ______ ____

>  <TORSDO>
F 10

$$$$
=
 OpenBabel07192307433D

 54 57  0  0  1  0  0  0  0  0999 V2000
   -2.7540   11.4700   18.6530 N   0  0  0  0  0  0  0  0  0  0  0  0
   -2.8510   10.5100   17.6520 C   0  0  0  0  0  0  0  0  0  0  0  0
   -3.8320   10.2580   16.9690 O   0  0  0  0  0  0  0  0  0  0  0  0
   -1.5000    9.8650   17.4680 C   0  0  0  0  0  0  0  0  0  0  0  0
   -0.7150   10.3310   18.6960 C   0  0  2  0  0  0  0  0  0  0  0  0
   -1.3710   11.6730   19.0440 C   0  0  2  0  0  0  0  0  0  0  0  0
   -1.0810   10.2200   16.5220 H   0  0  0  0  0  0  0  0  0  0  0  0
   -1.5970    8.7770   17.4460 H   0  0  0  0  0  0  0  0  0  0  0  0
   -0.9130    9.6020   19.4960 H   0  0  0  0  0  0  0  0  0  0  0  0
   -0.9880   12.4760   18.4030 H   0  0  0  0  0  0  0  0  0  0  0  0
   -1.2320   12.0590   20.4780 C   0  0  0  0  0  0  0  0  0  0  0  0
   -1.0590   11.2260   21.6090 C   0  0  0  0  0  0  0  0  0  0  0  0
   -0.9420   11.9150   22.7470 N   0  0  0  0  0  0  0  0  0  0  0  0
   -1.0350   13.1960   22.3520 N   0  0  0  0  0  0  0  0  0  0  0  0
   -1.2130   13.3360   21.0080 C   0  0  0  0  0  0  0  0  0  0  0  0
   -1.0240   10.1430   21.6470 H   0  0  0  0  0  0  0  0  0  0  0  0
   -1.2970   14.3080   20.5420 H   0  0  0  0  0  0  0  0  0  0  0  0
   -0.9300   14.2490   23.3310 C   0  0  0  0  0  0  0  0  0  0  0  0
   -1.1300   15.2020   22.8360 H   0  0  0  0  0  0  0  0  0  0  0  0
    0.0790   14.2540   23.7530 H   0  0  0  0  0  0  0  0  0  0  0  0
   -1.6640   14.0610   24.1190 H   0  0  0  0  0  0  0  0  0  0  0  0
   -3.8080   12.4570   18.8750 C   0  0  0  0  0  0  0  0  0  0  0  0
   -4.4070   12.5230   17.9600 H   0  0  0  0  0  0  0  0  0  0  0  0
   -3.3450   13.4390   19.0190 H   0  0  0  0  0  0  0  0  0  0  0  0
   -4.7300   12.1250   20.0580 C   0  0  0  0  0  0  0  0  0  0  0  0
   -4.3780   11.2190   20.5680 H   0  0  0  0  0  0  0  0  0  0  0  0
   -5.7350   11.9010   19.6950 H   0  0  0  0  0  0  0  0  0  0  0  0
   -4.8650   13.1920   21.0000 O   0  0  0  0  0  0  0  0  0  0  0  0
   -4.6370   12.7870   22.3430 C   0  0  0  0  0  0  0  0  0  0  0  0
   -5.1450   11.8380   22.5440 H   0  0  0  0  0  0  0  0  0  0  0  0
   -3.5720   12.6910   22.5600 H   0  0  0  0  0  0  0  0  0  0  0  0
   -5.0570   13.5490   23.0050 H   0  0  0  0  0  0  0  0  0  0  0  0
    0.8050   10.3960   18.5090 C   0  0  0  0  0  0  0  0  0  0  0  0
    1.2770   10.2770   19.4920 H   0  0  0  0  0  0  0  0  0  0  0  0
    1.0600   11.3970   18.1430 H   0  0  0  0  0  0  0  0  0  0  0  0
    1.3160    9.3820   17.5780 N   0  0  0  0  0  0  0  0  0  0  0  0
    0.6410    8.6210   17.4990 H   0  0  0  0  0  0  0  0  0  0  0  0
    2.5830    8.8020   18.0510 C   0  0  0  0  0  0  0  0  0  0  0  0
    3.2720    8.7460   17.2000 H   0  0  0  0  0  0  0  0  0  0  0  0
    3.0630    9.4460   18.7960 H   0  0  0  0  0  0  0  0  0  0  0  0
    2.3700    7.4250   18.5930 C   0  0  0  0  0  0  0  0  0  0  0  0
    2.1940    7.0310   19.9050 C   0  0  0  0  0  0  0  0  0  0  0  0
    2.0590    5.6660   19.8700 N   0  0  0  0  0  0  0  0  0  0  0  0
    1.8620    4.7670   20.9150 C   0  0  0  0  0  0  0  0  0  0  0  0
    1.7590    3.4550   20.6380 C   0  0  0  0  0  0  0  0  0  0  0  0
    1.8560    3.0190   19.2520 C   0  0  0  0  0  0  0  0  0  0  0  0
    2.0450    3.8970   18.2470 C   0  0  0  0  0  0  0  0  0  0  0  0
    2.1570    5.2870   18.5360 C   0  0  0  0  0  0  0  0  0  0  0  0
    2.3440    6.3290   17.7540 N   0  0  0  0  0  0  0  0  0  0  0  0
    2.1590    7.5880   20.8290 H   0  0  0  0  0  0  0  0  0  0  0  0
    1.8010    5.1690   21.9190 H   0  0  0  0  0  0  0  0  0  0  0  0
    1.6060    2.7120   21.4140 H   0  0  0  0  0  0  0  0  0  0  0  0
    1.7680    1.9560   19.0480 H   0  0  0  0  0  0  0  0  0  0  0  0
    2.1160    3.5760   17.2140 H   0  0  0  0  0  0  0  0  0  0  0  0
  1 22  1  0  0  0  0
  1  6  1  0  0  0  0
  2  1  1  0  0  0  0
  3  2  2  0  0  0  0
  4  2  1  0  0  0  0
  4  5  1  0  0  0  0
  5  6  1  0  0  0  0
  5  9  1  1  0  0  0
  6 10  1  6  0  0  0
  6 11  1  0  0  0  0
  7  4  1  0  0  0  0
  8  4  1  0  0  0  0
 11 15  2  0  0  0  0
 11 12  1  0  0  0  0
 12 16  1  0  0  0  0
 12 13  2  0  0  0  0
 14 13  1  0  0  0  0
 14 18  1  0  0  0  0
 15 14  1  0  0  0  0
 17 15  1  0  0  0  0
 18 20  1  0  0  0  0
 18 21  1  0  0  0  0
 19 18  1  0  0  0  0
 22 24  1  0  0  0  0
 22 25  1  0  0  0  0
 23 22  1  0  0  0  0
 25 26  1  0  0  0  0
 25 28  1  0  0  0  0
 27 25  1  0  0  0  0
 28 29  1  0  0  0  0
 29 30  1  0  0  0  0
 29 31  1  0  0  0  0
 29 32  1  0  0  0  0
 33  5  1  0  0  0  0
 33 34  1  0  0  0  0
 35 33  1  0  0  0  0
 36 38  1  0  0  0  0
 36 33  1  0  0  0  0
 37 36  1  0  0  0  0
 38 41  1  0  0  0  0
 38 40  1  0  0  0  0
 39 38  1  0  0  0  0
 41 42  2  0  0  0  0
 42 50  1  0  0  0  0
 43 42  1  0  0  0  0
 43 44  1  0  0  0  0
 44 51  1  0  0  0  0
 45 44  2  0  0  0  0
 45 52  1  0  0  0  0
 46 45  1  0  0  0  0
 47 48  1  0  0  0  0
 47 46  2  0  0  0  0
 48 43  1  0  0  0  0
 49 48  2  0  0  0  0
 49 41  1  0  0  0  0
 53 46  1  0  0  0  0
 54 47  1  0  0  0  0
M  END
>  <MODEL>
28

>  <REMARK>
 VINA RESULT:    -5.796      3.788      9.206
 INTER + INTRA:          -9.796
 INTER:                  -8.790
 INTRA:                  -1.005
 UNBOUND:                -0.951
  Name = 
  10 active torsions:
  status: ('A' for Active; 'I' for Inactive)
    1  A    between atoms: C_1  and  O_2
    2  A    between atoms: O_2  and  C_3
    3  A    between atoms: C_3  and  C_4
    4  A    between atoms: C_4  and  N_5
    5  A    between atoms: C_9  and  C_10
    6  A    between atoms: C_10  and  N_11
    7  A    between atoms: N_11  and  C_12
    8  A    between atoms: C_12  and  C_13
    9  A    between atoms: C_22  and  C_23
   10  A    between atoms: N_26  and  C_27
                            x       y       z     vdW  Elec       q    Type
                         _______ _______ _______ _____ _____    ______ ____

>  <TORSDO>
F 10

$$$$
=
 OpenBabel07192307433D

 54 57  0  0  1  0  0  0  0  0999 V2000
    3.6560    5.2730   17.4170 N   0  0  0  0  0  0  0  0  0  0  0  0
    4.4860    6.3520   17.1330 C   0  0  0  0  0  0  0  0  0  0  0  0
    5.4250    6.3710   16.3520 O   0  0  0  0  0  0  0  0  0  0  0  0
    3.9840    7.5580   17.8880 C   0  0  0  0  0  0  0  0  0  0  0  0
    2.9850    6.9630   18.8820 C   0  0  2  0  0  0  0  0  0  0  0  0
    2.4910    5.6980   18.1700 C   0  0  2  0  0  0  0  0  0  0  0  0
    3.5280    8.2430   17.1680 H   0  0  0  0  0  0  0  0  0  0  0  0
    4.8100    8.0560   18.4020 H   0  0  0  0  0  0  0  0  0  0  0  0
    3.5570    6.6840   19.7800 H   0  0  0  0  0  0  0  0  0  0  0  0
    1.7210    5.9400   17.4280 H   0  0  0  0  0  0  0  0  0  0  0  0
    1.9900    4.6410   19.0950 C   0  0  0  0  0  0  0  0  0  0  0  0
    0.9400    3.7120   18.8950 C   0  0  0  0  0  0  0  0  0  0  0  0
    0.7780    2.8850   19.9300 N   0  0  0  0  0  0  0  0  0  0  0  0
    1.7240    3.2760   20.8000 N   0  0  0  0  0  0  0  0  0  0  0  0
    2.4720    4.3230   20.3510 C   0  0  0  0  0  0  0  0  0  0  0  0
    0.2840    3.6140   18.0380 H   0  0  0  0  0  0  0  0  0  0  0  0
    3.2770    4.7420   20.9380 H   0  0  0  0  0  0  0  0  0  0  0  0
    1.8640    2.5810   22.0560 C   0  0  0  0  0  0  0  0  0  0  0  0
    2.0850    3.3140   22.8340 H   0  0  0  0  0  0  0  0  0  0  0  0
    2.6820    1.8590   21.9820 H   0  0  0  0  0  0  0  0  0  0  0  0
    0.9260    2.0620   22.2690 H   0  0  0  0  0  0  0  0  0  0  0  0
    3.7040    4.0410   16.6320 C   0  0  0  0  0  0  0  0  0  0  0  0
    4.2560    4.2490   15.7090 H   0  0  0  0  0  0  0  0  0  0  0  0
    2.6840    3.7730   16.3370 H   0  0  0  0  0  0  0  0  0  0  0  0
    4.3720    2.8660   17.3630 C   0  0  0  0  0  0  0  0  0  0  0  0
    4.8640    3.2200   18.2780 H   0  0  0  0  0  0  0  0  0  0  0  0
    5.1590    2.4380   16.7380 H   0  0  0  0  0  0  0  0  0  0  0  0
    3.4750    1.7980   17.6760 O   0  0  0  0  0  0  0  0  0  0  0  0
    3.8210    1.1050   18.8670 C   0  0  0  0  0  0  0  0  0  0  0  0
    4.9040    0.9470   18.9120 H   0  0  0  0  0  0  0  0  0  0  0  0
    3.4870    1.6420   19.7570 H   0  0  0  0  0  0  0  0  0  0  0  0
    3.3300    0.1280   18.8480 H   0  0  0  0  0  0  0  0  0  0  0  0
    1.8720    7.9150   19.3330 C   0  0  0  0  0  0  0  0  0  0  0  0
    0.9540    7.6480   18.7980 H   0  0  0  0  0  0  0  0  0  0  0  0
    2.1470    8.9300   19.0230 H   0  0  0  0  0  0  0  0  0  0  0  0
    1.6390    7.8870   20.7820 N   0  0  0  0  0  0  0  0  0  0  0  0
    1.5780    6.9180   21.0980 H   0  0  0  0  0  0  0  0  0  0  0  0
    0.3740    8.5490   21.1410 C   0  0  0  0  0  0  0  0  0  0  0  0
   -0.4490    7.9720   20.7040 H   0  0  0  0  0  0  0  0  0  0  0  0
    0.2160    8.5430   22.2250 H   0  0  0  0  0  0  0  0  0  0  0  0
    0.3300    9.9420   20.6020 C   0  0  0  0  0  0  0  0  0  0  0  0
    1.0490   11.0490   21.0080 C   0  0  0  0  0  0  0  0  0  0  0  0
    0.6290   12.0820   20.2090 N   0  0  0  0  0  0  0  0  0  0  0  0
    1.0290   13.4160   20.2000 C   0  0  0  0  0  0  0  0  0  0  0  0
    0.4680   14.2600   19.3160 C   0  0  0  0  0  0  0  0  0  0  0  0
   -0.5380   13.7490   18.3960 C   0  0  0  0  0  0  0  0  0  0  0  0
   -0.9180   12.4560   18.4120 C   0  0  0  0  0  0  0  0  0  0  0  0
   -0.3290   11.5590   19.3480 C   0  0  0  0  0  0  0  0  0  0  0  0
   -0.5220   10.2750   19.5680 N   0  0  0  0  0  0  0  0  0  0  0  0
    1.7970   11.1840   21.7760 H   0  0  0  0  0  0  0  0  0  0  0  0
    1.7830   13.7190   20.9150 H   0  0  0  0  0  0  0  0  0  0  0  0
    0.7430   15.3080   19.2660 H   0  0  0  0  0  0  0  0  0  0  0  0
   -0.9770   14.4450   17.6880 H   0  0  0  0  0  0  0  0  0  0  0  0
   -1.6650   12.0720   17.7280 H   0  0  0  0  0  0  0  0  0  0  0  0
  1  6  1  0  0  0  0
  2  1  1  0  0  0  0
  2  4  1  0  0  0  0
  3  2  2  0  0  0  0
  4  8  1  0  0  0  0
  4  5  1  0  0  0  0
  5 33  1  0  0  0  0
  5  9  1  1  0  0  0
  6 10  1  6  0  0  0
  6  5  1  0  0  0  0
  6 11  1  0  0  0  0
  7  4  1  0  0  0  0
 11 15  2  0  0  0  0
 12 11  1  0  0  0  0
 12 13  2  0  0  0  0
 13 14  1  0  0  0  0
 14 18  1  0  0  0  0
 15 14  1  0  0  0  0
 15 17  1  0  0  0  0
 16 12  1  0  0  0  0
 18 21  1  0  0  0  0
 18 19  1  0  0  0  0
 20 18  1  0  0  0  0
 22 25  1  0  0  0  0
 22  1  1  0  0  0  0
 23 22  1  0  0  0  0
 24 22  1  0  0  0  0
 25 28  1  0  0  0  0
 25 26  1  0  0  0  0
 27 25  1  0  0  0  0
 28 29  1  0  0  0  0
 29 30  1  0  0  0  0
 29 31  1  0  0  0  0
 32 29  1  0  0  0  0
 33 36  1  0  0  0  0
 34 33  1  0  0  0  0
 35 33  1  0  0  0  0
 36 37  1  0  0  0  0
 36 38  1  0  0  0  0
 38 40  1  0  0  0  0
 39 38  1  0  0  0  0
 41 42  2  0  0  0  0
 41 38  1  0  0  0  0
 42 50  1  0  0  0  0
 43 42  1  0  0  0  0
 44 43  1  0  0  0  0
 44 51  1  0  0  0  0
 45 44  2  0  0  0  0
 46 47  2  0  0  0  0
 46 45  1  0  0  0  0
 47 48  1  0  0  0  0
 48 49  2  0  0  0  0
 48 43  1  0  0  0  0
 49 41  1  0  0  0  0
 52 45  1  0  0  0  0
 53 46  1  0  0  0  0
 54 47  1  0  0  0  0
M  END
>  <MODEL>
29

>  <REMARK>
 VINA RESULT:    -5.795      2.157      4.176
 INTER + INTRA:          -9.795
 INTER:                  -8.748
 INTRA:                  -1.047
 UNBOUND:                -0.951
  Name = 
  10 active torsions:
  status: ('A' for Active; 'I' for Inactive)
    1  A    between atoms: C_1  and  O_2
    2  A    between atoms: O_2  and  C_3
    3  A    between atoms: C_3  and  C_4
    4  A    between atoms: C_4  and  N_5
    5  A    between atoms: C_9  and  C_10
    6  A    between atoms: C_10  and  N_11
    7  A    between atoms: N_11  and  C_12
    8  A    between atoms: C_12  and  C_13
    9  A    between atoms: C_22  and  C_23
   10  A    between atoms: N_26  and  C_27
                            x       y       z     vdW  Elec       q    Type
                         _______ _______ _______ _____ _____    ______ ____

>  <TORSDO>
F 10

$$$$
=
 OpenBabel07192307433D

 54 57  0  0  1  0  0  0  0  0999 V2000
   -0.2770   12.6080   18.9880 N   0  0  0  0  0  0  0  0  0  0  0  0
   -1.1310   11.5110   18.9780 C   0  0  0  0  0  0  0  0  0  0  0  0
   -2.3470   11.5260   19.0980 O   0  0  0  0  0  0  0  0  0  0  0  0
   -0.3210   10.2700   18.6990 C   0  0  0  0  0  0  0  0  0  0  0  0
    1.1230   10.7410   18.8820 C   0  0  2  0  0  0  0  0  0  0  0  0
    1.0520   12.2340   18.5400 C   0  0  2  0  0  0  0  0  0  0  0  0
   -0.5460    9.9400   17.6810 H   0  0  0  0  0  0  0  0  0  0  0  0
   -0.5760    9.4800   19.4100 H   0  0  0  0  0  0  0  0  0  0  0  0
    1.3660   10.6160   19.9480 H   0  0  0  0  0  0  0  0  0  0  0  0
    1.0620   12.3890   17.4540 H   0  0  0  0  0  0  0  0  0  0  0  0
    2.1230   13.0520   19.1780 C   0  0  0  0  0  0  0  0  0  0  0  0
    3.0390   13.9450   18.5710 C   0  0  0  0  0  0  0  0  0  0  0  0
    3.8490   14.5350   19.4530 N   0  0  0  0  0  0  0  0  0  0  0  0
    3.4580   14.0250   20.6330 N   0  0  0  0  0  0  0  0  0  0  0  0
    2.4340   13.1310   20.5230 C   0  0  0  0  0  0  0  0  0  0  0  0
    3.1490   14.1820   17.5180 H   0  0  0  0  0  0  0  0  0  0  0  0
    2.0060   12.6440   21.3880 H   0  0  0  0  0  0  0  0  0  0  0  0
    4.1120   14.4550   21.8440 C   0  0  0  0  0  0  0  0  0  0  0  0
    3.7070   13.8790   22.6790 H   0  0  0  0  0  0  0  0  0  0  0  0
    3.9210   15.5200   22.0000 H   0  0  0  0  0  0  0  0  0  0  0  0
    5.1850   14.2790   21.7360 H   0  0  0  0  0  0  0  0  0  0  0  0
   -0.7850   13.9780   18.9520 C   0  0  0  0  0  0  0  0  0  0  0  0
   -1.7190   13.9760   18.3800 H   0  0  0  0  0  0  0  0  0  0  0  0
   -0.0760   14.6000   18.3960 H   0  0  0  0  0  0  0  0  0  0  0  0
   -1.0450   14.5790   20.3410 C   0  0  0  0  0  0  0  0  0  0  0  0
   -0.9230   15.6690   20.3090 H   0  0  0  0  0  0  0  0  0  0  0  0
   -0.3030   14.2080   21.0520 H   0  0  0  0  0  0  0  0  0  0  0  0
   -2.3260   14.2490   20.8810 O   0  0  0  0  0  0  0  0  0  0  0  0
   -2.2520   13.5070   22.0900 C   0  0  0  0  0  0  0  0  0  0  0  0
   -1.8460   12.5080   21.8970 H   0  0  0  0  0  0  0  0  0  0  0  0
   -1.6430   14.0160   22.8390 H   0  0  0  0  0  0  0  0  0  0  0  0
   -3.2650   13.3970   22.4850 H   0  0  0  0  0  0  0  0  0  0  0  0
    2.1700    9.9540   18.0850 C   0  0  0  0  0  0  0  0  0  0  0  0
    3.1060    9.9530   18.6550 H   0  0  0  0  0  0  0  0  0  0  0  0
    2.3580   10.4920   17.1490 H   0  0  0  0  0  0  0  0  0  0  0  0
    1.7560    8.5770   17.7910 N   0  0  0  0  0  0  0  0  0  0  0  0
    1.0990    8.2590   18.5030 H   0  0  0  0  0  0  0  0  0  0  0  0
    2.9020    7.6530   17.8040 C   0  0  0  0  0  0  0  0  0  0  0  0
    3.1510    7.4030   16.7660 H   0  0  0  0  0  0  0  0  0  0  0  0
    3.7920    8.1280   18.2300 H   0  0  0  0  0  0  0  0  0  0  0  0
    2.5650    6.3950   18.5380 C   0  0  0  0  0  0  0  0  0  0  0  0
    2.4540    6.1930   19.9000 C   0  0  0  0  0  0  0  0  0  0  0  0
    2.1460    4.8660   20.0580 N   0  0  0  0  0  0  0  0  0  0  0  0
    1.9280    4.1370   21.2250 C   0  0  0  0  0  0  0  0  0  0  0  0
    1.6380    2.8270   21.1330 C   0  0  0  0  0  0  0  0  0  0  0  0
    1.5590    2.2150   19.8140 C   0  0  0  0  0  0  0  0  0  0  0  0
    1.7700    2.9290   18.6910 C   0  0  0  0  0  0  0  0  0  0  0  0
    2.0810    4.3150   18.7830 C   0  0  0  0  0  0  0  0  0  0  0  0
    2.3290    5.2180   17.8570 N   0  0  0  0  0  0  0  0  0  0  0  0
    2.5690    6.8600   20.7420 H   0  0  0  0  0  0  0  0  0  0  0  0
    2.0050    4.6650   22.1670 H   0  0  0  0  0  0  0  0  0  0  0  0
    1.4600    2.2140   22.0100 H   0  0  0  0  0  0  0  0  0  0  0  0
    1.3210    1.1570   19.7610 H   0  0  0  0  0  0  0  0  0  0  0  0
    1.7110    2.4760   17.7070 H   0  0  0  0  0  0  0  0  0  0  0  0
  2  1  1  0  0  0  0
  2  3  2  0  0  0  0
  4  5  1  0  0  0  0
  4  2  1  0  0  0  0
  4  8  1  0  0  0  0
  5  9  1  1  0  0  0
  6 10  1  6  0  0  0
  6  5  1  0  0  0  0
  6  1  1  0  0  0  0
  6 11  1  0  0  0  0
  7  4  1  0  0  0  0
 11 15  2  0  0  0  0
 12 11  1  0  0  0  0
 12 13  2  0  0  0  0
 13 14  1  0  0  0  0
 14 18  1  0  0  0  0
 15 14  1  0  0  0  0
 15 17  1  0  0  0  0
 16 12  1  0  0  0  0
 18 20  1  0  0  0  0
 18 19  1  0  0  0  0
 21 18  1  0  0  0  0
 22  1  1  0  0  0  0
 22 25  1  0  0  0  0
 23 22  1  0  0  0  0
 24 22  1  0  0  0  0
 25 28  1  0  0  0  0
 25 27  1  0  0  0  0
 26 25  1  0  0  0  0
 28 29  1  0  0  0  0
 29 32  1  0  0  0  0
 29 31  1  0  0  0  0
 30 29  1  0  0  0  0
 33 34  1  0  0  0  0
 33  5  1  0  0  0  0
 35 33  1  0  0  0  0
 36 38  1  0  0  0  0
 36 33  1  0  0  0  0
 36 37  1  0  0  0  0
 38 40  1  0  0  0  0
 38 41  1  0  0  0  0
 39 38  1  0  0  0  0
 41 42  2  0  0  0  0
 42 43  1  0  0  0  0
 42 50  1  0  0  0  0
 43 44  1  0  0  0  0
 44 51  1  0  0  0  0
 45 44  2  0  0  0  0
 45 52  1  0  0  0  0
 46 45  1  0  0  0  0
 47 48  1  0  0  0  0
 47 46  2  0  0  0  0
 48 43  1  0  0  0  0
 49 41  1  0  0  0  0
 49 48  2  0  0  0  0
 53 46  1  0  0  0  0
 54 47  1  0  0  0  0
M  END
>  <MODEL>
30

>  <REMARK>
 VINA RESULT:    -5.788      3.846      8.686
 INTER + INTRA:          -9.784
 INTER:                  -8.823
 INTRA:                  -0.961
 UNBOUND:                -0.951
  Name = 
  10 active torsions:
  status: ('A' for Active; 'I' for Inactive)
    1  A    between atoms: C_1  and  O_2
    2  A    between atoms: O_2  and  C_3
    3  A    between atoms: C_3  and  C_4
    4  A    between atoms: C_4  and  N_5
    5  A    between atoms: C_9  and  C_10
    6  A    between atoms: C_10  and  N_11
    7  A    between atoms: N_11  and  C_12
    8  A    between atoms: C_12  and  C_13
    9  A    between atoms: C_22  and  C_23
   10  A    between atoms: N_26  and  C_27
                            x       y       z     vdW  Elec       q    Type
                         _______ _______ _______ _____ _____    ______ ____

>  <TORSDO>
F 10

$$$$
=
 OpenBabel07192307433D

 54 57  0  0  1  0  0  0  0  0999 V2000
   -0.3580   11.9070   21.7120 N   0  0  0  0  0  0  0  0  0  0  0  0
   -0.6940   10.7310   22.3750 C   0  0  0  0  0  0  0  0  0  0  0  0
   -1.3960   10.6230   23.3690 O   0  0  0  0  0  0  0  0  0  0  0  0
   -0.1190    9.5650   21.6100 C   0  0  0  0  0  0  0  0  0  0  0  0
    0.8540   10.2270   20.6330 C   0  0  2  0  0  0  0  0  0  0  0  0
    0.2500   11.6210   20.4260 C   0  0  2  0  0  0  0  0  0  0  0  0
   -0.9440    9.0430   21.1180 H   0  0  0  0  0  0  0  0  0  0  0  0
    0.4000    8.8830   22.2890 H   0  0  0  0  0  0  0  0  0  0  0  0
    1.8200   10.3140   21.1540 H   0  0  0  0  0  0  0  0  0  0  0  0
   -0.5720   11.5900   19.7000 H   0  0  0  0  0  0  0  0  0  0  0  0
    1.2440   12.6560   20.0200 C   0  0  0  0  0  0  0  0  0  0  0  0
    2.2990   13.2200   20.7780 C   0  0  0  0  0  0  0  0  0  0  0  0
    3.0170   14.1070   20.0850 N   0  0  0  0  0  0  0  0  0  0  0  0
    2.4290   14.1170   18.8770 N   0  0  0  0  0  0  0  0  0  0  0  0
    1.3640   13.2720   18.7870 C   0  0  0  0  0  0  0  0  0  0  0  0
    2.5650   13.0220   21.8100 H   0  0  0  0  0  0  0  0  0  0  0  0
    0.7950   13.1650   17.8740 H   0  0  0  0  0  0  0  0  0  0  0  0
    2.9580   14.9650   17.8380 C   0  0  0  0  0  0  0  0  0  0  0  0
    2.7210   16.0020   18.0830 H   0  0  0  0  0  0  0  0  0  0  0  0
    2.5010   14.6950   16.8820 H   0  0  0  0  0  0  0  0  0  0  0  0
    4.0400   14.8170   17.7900 H   0  0  0  0  0  0  0  0  0  0  0  0
   -0.9940   13.1810   22.0390 C   0  0  0  0  0  0  0  0  0  0  0  0
   -0.2180   13.9540   22.0480 H   0  0  0  0  0  0  0  0  0  0  0  0
   -1.3930   13.1230   23.0570 H   0  0  0  0  0  0  0  0  0  0  0  0
   -2.1020   13.5910   21.0560 C   0  0  0  0  0  0  0  0  0  0  0  0
   -1.6710   13.8070   20.0710 H   0  0  0  0  0  0  0  0  0  0  0  0
   -2.5750   14.5160   21.3940 H   0  0  0  0  0  0  0  0  0  0  0  0
   -3.1460   12.6230   20.9290 O   0  0  0  0  0  0  0  0  0  0  0  0
   -3.3960   12.2410   19.5830 C   0  0  0  0  0  0  0  0  0  0  0  0
   -3.6840   13.1150   18.9890 H   0  0  0  0  0  0  0  0  0  0  0  0
   -2.5270   11.7570   19.1340 H   0  0  0  0  0  0  0  0  0  0  0  0
   -4.2270   11.5310   19.5790 H   0  0  0  0  0  0  0  0  0  0  0  0
    1.1090    9.4450   19.3390 C   0  0  0  0  0  0  0  0  0  0  0  0
    1.6000   10.1150   18.6240 H   0  0  0  0  0  0  0  0  0  0  0  0
    0.1370    9.1690   18.9130 H   0  0  0  0  0  0  0  0  0  0  0  0
    1.9220    8.2400   19.5430 N   0  0  0  0  0  0  0  0  0  0  0  0
    2.7680    8.4830   20.0580 H   0  0  0  0  0  0  0  0  0  0  0  0
    2.3390    7.6460   18.2630 C   0  0  0  0  0  0  0  0  0  0  0  0
    1.4980    7.7160   17.5630 H   0  0  0  0  0  0  0  0  0  0  0  0
    3.1650    8.2080   17.8130 H   0  0  0  0  0  0  0  0  0  0  0  0
    2.7060    6.2070   18.4370 C   0  0  0  0  0  0  0  0  0  0  0  0
    3.6840    5.6560   19.2420 C   0  0  0  0  0  0  0  0  0  0  0  0
    3.6270    4.3020   19.0270 N   0  0  0  0  0  0  0  0  0  0  0  0
    4.3950    3.2820   19.5840 C   0  0  0  0  0  0  0  0  0  0  0  0
    4.1580    2.0110   19.2140 C   0  0  0  0  0  0  0  0  0  0  0  0
    3.1050    1.7440   18.2450 C   0  0  0  0  0  0  0  0  0  0  0  0
    2.3670    2.7390   17.7130 C   0  0  0  0  0  0  0  0  0  0  0  0
    2.6150    4.0870   18.0980 C   0  0  0  0  0  0  0  0  0  0  0  0
    2.0500    5.2180   17.7320 N   0  0  0  0  0  0  0  0  0  0  0  0
    4.3930    6.1000   19.9250 H   0  0  0  0  0  0  0  0  0  0  0  0
    5.1590    3.5610   20.2980 H   0  0  0  0  0  0  0  0  0  0  0  0
    4.7260    1.1790   19.6160 H   0  0  0  0  0  0  0  0  0  0  0  0
    2.9270    0.7110   17.9610 H   0  0  0  0  0  0  0  0  0  0  0  0
    1.5810    2.5430   16.9920 H   0  0  0  0  0  0  0  0  0  0  0  0
  1 22  1  0  0  0  0
  1  2  1  0  0  0  0
  2  3  2  0  0  0  0
  4  8  1  0  0  0  0
  4  2  1  0  0  0  0
  5  9  1  1  0  0  0
  5  4  1  0  0  0  0
  6 10  1  6  0  0  0
  6  5  1  0  0  0  0
  6  1  1  0  0  0  0
  7  4  1  0  0  0  0
 11  6  1  0  0  0  0
 11 12  1  0  0  0  0
 12 16  1  0  0  0  0
 13 12  2  0  0  0  0
 14 13  1  0  0  0  0
 15 14  1  0  0  0  0
 15 11  2  0  0  0  0
 17 15  1  0  0  0  0
 18 19  1  0  0  0  0
 18 14  1  0  0  0  0
 20 18  1  0  0  0  0
 21 18  1  0  0  0  0
 22 23  1  0  0  0  0
 22 24  1  0  0  0  0
 25 27  1  0  0  0  0
 25 22  1  0  0  0  0
 26 25  1  0  0  0  0
 28 25  1  0  0  0  0
 29 28  1  0  0  0  0
 30 29  1  0  0  0  0
 31 29  1  0  0  0  0
 32 29  1  0  0  0  0
 33 36  1  0  0  0  0
 33  5  1  0  0  0  0
 34 33  1  0  0  0  0
 35 33  1  0  0  0  0
 36 37  1  0  0  0  0
 38 41  1  0  0  0  0
 38 36  1  0  0  0  0
 39 38  1  0  0  0  0
 40 38  1  0  0  0  0
 41 42  2  0  0  0  0
 42 50  1  0  0  0  0
 43 42  1  0  0  0  0
 43 44  1  0  0  0  0
 44 51  1  0  0  0  0
 45 44  2  0  0  0  0
 45 52  1  0  0  0  0
 46 45  1  0  0  0  0
 47 48  1  0  0  0  0
 47 46  2  0  0  0  0
 48 43  1  0  0  0  0
 49 48  2  0  0  0  0
 49 41  1  0  0  0  0
 53 46  1  0  0  0  0
 54 47  1  0  0  0  0
M  END
>  <MODEL>
31

>  <REMARK>
 VINA RESULT:    -5.775      3.283      8.778
 INTER + INTRA:          -9.765
 INTER:                  -8.967
 INTRA:                  -0.798
 UNBOUND:                -0.951
  Name = 
  10 active torsions:
  status: ('A' for Active; 'I' for Inactive)
    1  A    between atoms: C_1  and  O_2
    2  A    between atoms: O_2  and  C_3
    3  A    between atoms: C_3  and  C_4
    4  A    between atoms: C_4  and  N_5
    5  A    between atoms: C_9  and  C_10
    6  A    between atoms: C_10  and  N_11
    7  A    between atoms: N_11  and  C_12
    8  A    between atoms: C_12  and  C_13
    9  A    between atoms: C_22  and  C_23
   10  A    between atoms: N_26  and  C_27
                            x       y       z     vdW  Elec       q    Type
                         _______ _______ _______ _____ _____    ______ ____

>  <TORSDO>
F 10

$$$$
=
 OpenBabel07192307433D

 54 57  0  0  1  0  0  0  0  0999 V2000
    0.4740   13.1870   20.0500 N   0  0  0  0  0  0  0  0  0  0  0  0
    1.2690   12.7800   18.9850 C   0  0  0  0  0  0  0  0  0  0  0  0
    1.9440   13.4930   18.2570 O   0  0  0  0  0  0  0  0  0  0  0  0
    1.2480   11.2730   18.9140 C   0  0  0  0  0  0  0  0  0  0  0  0
    0.0940   10.8920   19.8430 C   0  0  2  0  0  0  0  0  0  0  0  0
    0.0540   12.0490   20.8470 C   0  0  2  0  0  0  0  0  0  0  0  0
    2.2200   10.9040   19.2510 H   0  0  0  0  0  0  0  0  0  0  0  0
    1.0600   10.9430   17.8890 H   0  0  0  0  0  0  0  0  0  0  0  0
   -0.8220   10.8970   19.2330 H   0  0  0  0  0  0  0  0  0  0  0  0
    0.8180   11.9230   21.6240 H   0  0  0  0  0  0  0  0  0  0  0  0
   -1.2810   12.2540   21.4800 C   0  0  0  0  0  0  0  0  0  0  0  0
   -2.5230   12.5360   20.8610 C   0  0  0  0  0  0  0  0  0  0  0  0
   -3.5270   12.6320   21.7360 N   0  0  0  0  0  0  0  0  0  0  0  0
   -2.9370   12.4090   22.9210 N   0  0  0  0  0  0  0  0  0  0  0  0
   -1.5960   12.1830   22.8240 C   0  0  0  0  0  0  0  0  0  0  0  0
   -2.7300   12.6830   19.8070 H   0  0  0  0  0  0  0  0  0  0  0  0
   -0.9870   11.9810   23.6940 H   0  0  0  0  0  0  0  0  0  0  0  0
   -3.7340   12.4160   24.1230 C   0  0  0  0  0  0  0  0  0  0  0  0
   -4.7690   12.6320   23.8500 H   0  0  0  0  0  0  0  0  0  0  0  0
   -3.3610   13.1880   24.8020 H   0  0  0  0  0  0  0  0  0  0  0  0
   -3.6550   11.4340   24.5940 H   0  0  0  0  0  0  0  0  0  0  0  0
    0.5090   14.5570   20.5550 C   0  0  0  0  0  0  0  0  0  0  0  0
   -0.4710   14.7830   20.9880 H   0  0  0  0  0  0  0  0  0  0  0  0
    0.6450   15.2400   19.7090 H   0  0  0  0  0  0  0  0  0  0  0  0
    1.5960   14.8000   21.6140 C   0  0  0  0  0  0  0  0  0  0  0  0
    1.6870   13.9240   22.2690 H   0  0  0  0  0  0  0  0  0  0  0  0
    1.3080   15.6350   22.2570 H   0  0  0  0  0  0  0  0  0  0  0  0
    2.8720   15.1320   21.0640 O   0  0  0  0  0  0  0  0  0  0  0  0
    3.9050   14.2420   21.4650 C   0  0  0  0  0  0  0  0  0  0  0  0
    4.3850   13.7980   20.5870 H   0  0  0  0  0  0  0  0  0  0  0  0
    4.6520   14.7440   22.0820 H   0  0  0  0  0  0  0  0  0  0  0  0
    3.4530   13.4400   22.0540 H   0  0  0  0  0  0  0  0  0  0  0  0
    0.2050    9.5010   20.4790 C   0  0  0  0  0  0  0  0  0  0  0  0
   -0.7350    8.9660   20.3000 H   0  0  0  0  0  0  0  0  0  0  0  0
    0.3060    9.6310   21.5630 H   0  0  0  0  0  0  0  0  0  0  0  0
    1.3360    8.7200   19.9650 N   0  0  0  0  0  0  0  0  0  0  0  0
    1.0830    8.3020   19.0700 H   0  0  0  0  0  0  0  0  0  0  0  0
    1.6960    7.6230   20.8790 C   0  0  0  0  0  0  0  0  0  0  0  0
    2.6490    7.8760   21.3580 H   0  0  0  0  0  0  0  0  0  0  0  0
    0.9610    7.5190   21.6850 H   0  0  0  0  0  0  0  0  0  0  0  0
    1.8550    6.3370   20.1320 C   0  0  0  0  0  0  0  0  0  0  0  0
    2.5290    6.1030   18.9500 C   0  0  0  0  0  0  0  0  0  0  0  0
    2.3600    4.7680   18.6810 N   0  0  0  0  0  0  0  0  0  0  0  0
    2.8300    4.0120   17.6100 C   0  0  0  0  0  0  0  0  0  0  0  0
    2.5320    2.7020   17.5550 C   0  0  0  0  0  0  0  0  0  0  0  0
    1.7290    2.1170   18.6200 C   0  0  0  0  0  0  0  0  0  0  0  0
    1.2790    2.8580   19.6530 C   0  0  0  0  0  0  0  0  0  0  0  0
    1.5900    4.2460   19.7140 C   0  0  0  0  0  0  0  0  0  0  0  0
    1.2770    5.1720   20.5950 N   0  0  0  0  0  0  0  0  0  0  0  0
    3.0930    6.7530   18.2970 H   0  0  0  0  0  0  0  0  0  0  0  0
    3.4210    4.5190   16.8580 H   0  0  0  0  0  0  0  0  0  0  0  0
    2.8720    2.0670   16.7440 H   0  0  0  0  0  0  0  0  0  0  0  0
    1.5010    1.0570   18.5590 H   0  0  0  0  0  0  0  0  0  0  0  0
    0.6830    2.4250   20.4480 H   0  0  0  0  0  0  0  0  0  0  0  0
  1 22  1  0  0  0  0
  1  6  1  0  0  0  0
  2  1  1  0  0  0  0
  3  2  2  0  0  0  0
  4  2  1  0  0  0  0
  4  7  1  0  0  0  0
  4  5  1  0  0  0  0
  5  9  1  6  0  0  0
  5 33  1  0  0  0  0
  5  6  1  0  0  0  0
  6 11  1  0  0  0  0
  6 10  1  1  0  0  0
  8  4  1  0  0  0  0
 11 15  2  0  0  0  0
 12 11  1  0  0  0  0
 12 13  2  0  0  0  0
 13 14  1  0  0  0  0
 14 18  1  0  0  0  0
 15 14  1  0  0  0  0
 15 17  1  0  0  0  0
 16 12  1  0  0  0  0
 18 21  1  0  0  0  0
 18 20  1  0  0  0  0
 19 18  1  0  0  0  0
 22 23  1  0  0  0  0
 22 25  1  0  0  0  0
 24 22  1  0  0  0  0
 25 27  1  0  0  0  0
 25 26  1  0  0  0  0
 28 29  1  0  0  0  0
 28 25  1  0  0  0  0
 29 32  1  0  0  0  0
 29 31  1  0  0  0  0
 30 29  1  0  0  0  0
 33 35  1  0  0  0  0
 34 33  1  0  0  0  0
 36 33  1  0  0  0  0
 36 38  1  0  0  0  0
 37 36  1  0  0  0  0
 38 39  1  0  0  0  0
 38 40  1  0  0  0  0
 41 49  1  0  0  0  0
 41 38  1  0  0  0  0
 42 41  2  0  0  0  0
 43 42  1  0  0  0  0
 43 48  1  0  0  0  0
 44 43  1  0  0  0  0
 45 44  2  0  0  0  0
 45 46  1  0  0  0  0
 46 47  2  0  0  0  0
 47 48  1  0  0  0  0
 47 54  1  0  0  0  0
 48 49  2  0  0  0  0
 50 42  1  0  0  0  0
 51 44  1  0  0  0  0
 52 45  1  0  0  0  0
 53 46  1  0  0  0  0
M  END
>  <MODEL>
32

>  <REMARK>
 VINA RESULT:    -5.660      3.721      9.659
 INTER + INTRA:          -9.589
 INTER:                  -8.652
 INTRA:                  -0.937
 UNBOUND:                -0.951
  Name = 
  10 active torsions:
  status: ('A' for Active; 'I' for Inactive)
    1  A    between atoms: C_1  and  O_2
    2  A    between atoms: O_2  and  C_3
    3  A    between atoms: C_3  and  C_4
    4  A    between atoms: C_4  and  N_5
    5  A    between atoms: C_9  and  C_10
    6  A    between atoms: C_10  and  N_11
    7  A    between atoms: N_11  and  C_12
    8  A    between atoms: C_12  and  C_13
    9  A    between atoms: C_22  and  C_23
   10  A    between atoms: N_26  and  C_27
                            x       y       z     vdW  Elec       q    Type
                         _______ _______ _______ _____ _____    ______ ____

>  <TORSDO>
F 10

$$$$
=
 OpenBabel07192307433D

 54 57  0  0  1  0  0  0  0  0999 V2000
   -0.9070   12.4570   19.6860 N   0  0  0  0  0  0  0  0  0  0  0  0
    0.3050   13.0100   20.0840 C   0  0  0  0  0  0  0  0  0  0  0  0
    0.4720   14.0670   20.6730 O   0  0  0  0  0  0  0  0  0  0  0  0
    1.4110   12.0400   19.7510 C   0  0  0  0  0  0  0  0  0  0  0  0
    0.7300   11.0310   18.8250 C   0  0  2  0  0  0  0  0  0  0  0  0
   -0.7350   11.0760   19.2720 C   0  0  2  0  0  0  0  0  0  0  0  0
    1.7710   11.6010   20.6860 H   0  0  0  0  0  0  0  0  0  0  0  0
    2.2310   12.5560   19.2440 H   0  0  0  0  0  0  0  0  0  0  0  0
    0.8190   11.4260   17.8020 H   0  0  0  0  0  0  0  0  0  0  0  0
   -0.8910   10.4680   20.1710 H   0  0  0  0  0  0  0  0  0  0  0  0
   -1.7030   10.6710   18.2130 C   0  0  0  0  0  0  0  0  0  0  0  0
   -2.7210    9.6880   18.2680 C   0  0  0  0  0  0  0  0  0  0  0  0
   -3.4250    9.6070   17.1360 N   0  0  0  0  0  0  0  0  0  0  0  0
   -2.8640   10.5390   16.3470 N   0  0  0  0  0  0  0  0  0  0  0  0
   -1.8300   11.1990   16.9410 C   0  0  0  0  0  0  0  0  0  0  0  0
   -2.9690    9.0250   19.0890 H   0  0  0  0  0  0  0  0  0  0  0  0
   -1.2860   11.9830   16.4320 H   0  0  0  0  0  0  0  0  0  0  0  0
   -3.3880   10.7540   15.0210 C   0  0  0  0  0  0  0  0  0  0  0  0
   -2.8760   11.6130   14.5820 H   0  0  0  0  0  0  0  0  0  0  0  0
   -4.4610   10.9540   15.0830 H   0  0  0  0  0  0  0  0  0  0  0  0
   -3.2090    9.8530   14.4300 H   0  0  0  0  0  0  0  0  0  0  0  0
   -2.1850   13.0170   20.1170 C   0  0  0  0  0  0  0  0  0  0  0  0
   -2.9430   12.7400   19.3760 H   0  0  0  0  0  0  0  0  0  0  0  0
   -2.1130   14.1100   20.1010 H   0  0  0  0  0  0  0  0  0  0  0  0
   -2.6370   12.5350   21.5040 C   0  0  0  0  0  0  0  0  0  0  0  0
   -1.8740   12.7740   22.2540 H   0  0  0  0  0  0  0  0  0  0  0  0
   -2.7380   11.4470   21.5040 H   0  0  0  0  0  0  0  0  0  0  0  0
   -3.9020   13.0610   21.9120 O   0  0  0  0  0  0  0  0  0  0  0  0
   -4.9760   12.6540   21.0750 C   0  0  0  0  0  0  0  0  0  0  0  0
   -5.5530   13.5260   20.7490 H   0  0  0  0  0  0  0  0  0  0  0  0
   -4.6210   12.0980   20.2060 H   0  0  0  0  0  0  0  0  0  0  0  0
   -5.6340   12.0030   21.6570 H   0  0  0  0  0  0  0  0  0  0  0  0
    1.3520    9.6290   18.8220 C   0  0  0  0  0  0  0  0  0  0  0  0
    2.4410    9.7360   18.8790 H   0  0  0  0  0  0  0  0  0  0  0  0
    1.1190    9.1560   17.8610 H   0  0  0  0  0  0  0  0  0  0  0  0
    0.8710    8.7820   19.9210 N   0  0  0  0  0  0  0  0  0  0  0  0
    0.4710    9.3680   20.6530 H   0  0  0  0  0  0  0  0  0  0  0  0
    1.9650    8.0040   20.5250 C   0  0  0  0  0  0  0  0  0  0  0  0
    2.9130    8.4830   20.2540 H   0  0  0  0  0  0  0  0  0  0  0  0
    1.9090    8.0230   21.6190 H   0  0  0  0  0  0  0  0  0  0  0  0
    1.9670    6.5990   20.0140 C   0  0  0  0  0  0  0  0  0  0  0  0
    2.4330    6.1210   18.8050 C   0  0  0  0  0  0  0  0  0  0  0  0
    2.1880    4.7710   18.8170 N   0  0  0  0  0  0  0  0  0  0  0  0
    2.4580    3.8110   17.8450 C   0  0  0  0  0  0  0  0  0  0  0  0
    2.1210    2.5300   18.0810 C   0  0  0  0  0  0  0  0  0  0  0  0
    1.4860    2.1910   19.3470 C   0  0  0  0  0  0  0  0  0  0  0  0
    1.2300    3.1280   20.2820 C   0  0  0  0  0  0  0  0  0  0  0  0
    1.5830    4.4850   20.0360 C   0  0  0  0  0  0  0  0  0  0  0  0
    1.4410    5.5700   20.7680 N   0  0  0  0  0  0  0  0  0  0  0  0
    2.9000    6.6120   17.9640 H   0  0  0  0  0  0  0  0  0  0  0  0
    2.9330    4.1420   16.9310 H   0  0  0  0  0  0  0  0  0  0  0  0
    2.3080    1.7430   17.3580 H   0  0  0  0  0  0  0  0  0  0  0  0
    1.2240    1.1510   19.5190 H   0  0  0  0  0  0  0  0  0  0  0  0
    0.7590    2.8780   21.2260 H   0  0  0  0  0  0  0  0  0  0  0  0
  1  2  1  0  0  0  0
  1 22  1  0  0  0  0
  2  3  2  0  0  0  0
  4  2  1  0  0  0  0
  4  7  1  0  0  0  0
  5  9  1  6  0  0  0
  5  6  1  0  0  0  0
  5  4  1  0  0  0  0
  6  1  1  0  0  0  0
  6 10  1  1  0  0  0
  8  4  1  0  0  0  0
 11 12  1  0  0  0  0
 11  6  1  0  0  0  0
 12 16  1  0  0  0  0
 13 12  2  0  0  0  0
 14 15  1  0  0  0  0
 14 13  1  0  0  0  0
 15 11  2  0  0  0  0
 17 15  1  0  0  0  0
 18 20  1  0  0  0  0
 18 14  1  0  0  0  0
 19 18  1  0  0  0  0
 21 18  1  0  0  0  0
 22 25  1  0  0  0  0
 23 22  1  0  0  0  0
 24 22  1  0  0  0  0
 25 28  1  0  0  0  0
 25 26  1  0  0  0  0
 27 25  1  0  0  0  0
 29 32  1  0  0  0  0
 29 28  1  0  0  0  0
 30 29  1  0  0  0  0
 31 29  1  0  0  0  0
 33  5  1  0  0  0  0
 33 34  1  0  0  0  0
 33 36  1  0  0  0  0
 35 33  1  0  0  0  0
 36 38  1  0  0  0  0
 36 37  1  0  0  0  0
 38 40  1  0  0  0  0
 39 38  1  0  0  0  0
 41 38  1  0  0  0  0
 41 49  1  0  0  0  0
 42 43  1  0  0  0  0
 42 41  2  0  0  0  0
 43 48  1  0  0  0  0
 44 45  2  0  0  0  0
 44 43  1  0  0  0  0
 45 46  1  0  0  0  0
 46 53  1  0  0  0  0
 46 47  2  0  0  0  0
 47 54  1  0  0  0  0
 48 47  1  0  0  0  0
 48 49  2  0  0  0  0
 50 42  1  0  0  0  0
 51 44  1  0  0  0  0
 52 45  1  0  0  0  0
M  END
>  <MODEL>
33

>  <REMARK>
 VINA RESULT:    -5.610      4.061      8.838
 INTER + INTRA:          -9.512
 INTER:                  -8.561
 INTRA:                  -0.951
 UNBOUND:                -0.951
  Name = 
  10 active torsions:
  status: ('A' for Active; 'I' for Inactive)
    1  A    between atoms: C_1  and  O_2
    2  A    between atoms: O_2  and  C_3
    3  A    between atoms: C_3  and  C_4
    4  A    between atoms: C_4  and  N_5
    5  A    between atoms: C_9  and  C_10
    6  A    between atoms: C_10  and  N_11
    7  A    between atoms: N_11  and  C_12
    8  A    between atoms: C_12  and  C_13
    9  A    between atoms: C_22  and  C_23
   10  A    between atoms: N_26  and  C_27
                            x       y       z     vdW  Elec       q    Type
                         _______ _______ _______ _____ _____    ______ ____

>  <TORSDO>
F 10

$$$$
