=
 OpenBabel07192307433D

 55 58  0  0  0  0  0  0  0  0999 V2000
    2.6720    4.8470   18.9250 C   0  0  0  0  0  0  0  0  0  0  0  0
    2.2770    4.8980   20.2620 C   0  0  0  0  0  0  0  0  0  0  0  0
    1.8870    6.1180   20.8230 C   0  0  0  0  0  0  0  0  0  0  0  0
    1.9100    7.2920   20.0620 C   0  0  0  0  0  0  0  0  0  0  0  0
    2.3420    7.2290   18.7290 C   0  0  0  0  0  0  0  0  0  0  0  0
    2.7240    6.0110   18.1560 C   0  0  0  0  0  0  0  0  0  0  0  0
    2.2550    4.0000   20.8760 H   0  0  0  0  0  0  0  0  0  0  0  0
    1.5720    6.1160   21.8630 H   0  0  0  0  0  0  0  0  0  0  0  0
    2.3820    8.1250   18.1140 H   0  0  0  0  0  0  0  0  0  0  0  0
    3.0560    5.9850   17.1210 H   0  0  0  0  0  0  0  0  0  0  0  0
    1.5240    8.5570   20.5500 N   0  0  0  0  0  0  0  0  0  0  0  0
    0.3660    8.8770   21.2360 C   0  0  0  0  0  0  0  0  0  0  0  0
   -0.5430    8.1070   21.5300 O   0  0  0  0  0  0  0  0  0  0  0  0
    2.1960    9.3050   20.4130 H   0  0  0  0  0  0  0  0  0  0  0  0
    0.2820   10.3490   21.5900 C   0  0  0  0  0  0  0  0  0  0  0  0
    1.1280   10.5750   22.2500 H   0  0  0  0  0  0  0  0  0  0  0  0
   -0.6250   10.5690   22.1610 H   0  0  0  0  0  0  0  0  0  0  0  0
    0.3620   11.2180   20.3400 C   0  0  0  0  0  0  0  0  0  0  0  0
    0.3600   12.2720   20.6410 H   0  0  0  0  0  0  0  0  0  0  0  0
    1.3050   11.0380   19.8100 H   0  0  0  0  0  0  0  0  0  0  0  0
   -0.7400   11.0480   19.4040 N   0  0  0  0  0  0  0  0  0  0  0  0
   -1.9410   11.7040   19.4630 C   0  0  0  0  0  0  0  0  0  0  0  0
   -2.3530   12.4850   20.3030 O   0  0  0  0  0  0  0  0  0  0  0  0
   -2.6960   11.3080   18.2780 C   0  0  0  0  0  0  0  0  0  0  0  0
   -3.9740   11.6420   17.8740 C   0  0  0  0  0  0  0  0  0  0  0  0
   -4.4230   11.1010   16.6640 C   0  0  0  0  0  0  0  0  0  0  0  0
   -3.5950   10.2550   15.8970 C   0  0  0  0  0  0  0  0  0  0  0  0
   -2.3040    9.9340   16.3280 C   0  0  0  0  0  0  0  0  0  0  0  0
   -1.8860   10.4760   17.5270 C   0  0  0  0  0  0  0  0  0  0  0  0
   -0.6140   10.3440   18.2340 C   0  0  0  0  0  0  0  0  0  0  0  0
    0.3470    9.7410   17.7950 O   0  0  0  0  0  0  0  0  0  0  0  0
   -4.6010   12.2920   18.4740 H   0  0  0  0  0  0  0  0  0  0  0  0
   -5.4250   11.3350   16.3090 H   0  0  0  0  0  0  0  0  0  0  0  0
   -3.9670    9.8460   14.9600 H   0  0  0  0  0  0  0  0  0  0  0  0
   -1.6540    9.2820   15.7490 H   0  0  0  0  0  0  0  0  0  0  0  0
    3.1470    3.2940   18.1960 S   0  0  0  0  0  0  0  0  0  0  0  0
    2.7980    3.3280   16.7910 O   0  0  0  0  0  0  0  0  0  0  0  0
    2.6520    2.2430   19.0610 O   0  0  0  0  0  0  0  0  0  0  0  0
    6.3160    4.4510   15.2290 C   0  0  0  0  0  0  0  0  0  0  0  0
    5.6430    3.5940   16.0680 C   0  0  0  0  0  0  0  0  0  0  0  0
    5.5370    4.0160   17.3710 C   0  0  0  0  0  0  0  0  0  0  0  0
    4.8290    3.2870   18.3480 N   0  0  0  0  0  0  0  0  0  0  0  0
    6.0280    5.1610   17.8540 N   0  0  0  0  0  0  0  0  0  0  0  0
    6.6470    5.9430   16.9540 C   0  0  0  0  0  0  0  0  0  0  0  0
    6.8200    5.6280   15.6560 N   0  0  0  0  0  0  0  0  0  0  0  0
    5.2230    2.6580   15.7300 H   0  0  0  0  0  0  0  0  0  0  0  0
    5.1040    3.5680   19.2860 H   0  0  0  0  0  0  0  0  0  0  0  0
    6.4950    4.1060   13.7810 C   0  0  0  0  0  0  0  0  0  0  0  0
    6.9740    4.9360   13.2510 H   0  0  0  0  0  0  0  0  0  0  0  0
    7.1260    3.2170   13.6680 H   0  0  0  0  0  0  0  0  0  0  0  0
    5.5250    3.8930   13.3200 H   0  0  0  0  0  0  0  0  0  0  0  0
    7.2060    7.2470   17.4290 C   0  0  0  0  0  0  0  0  0  0  0  0
    6.7180    8.0730   16.9060 H   0  0  0  0  0  0  0  0  0  0  0  0
    8.2840    7.3000   17.2380 H   0  0  0  0  0  0  0  0  0  0  0  0
    7.0440    7.3610   18.5050 H   0  0  0  0  0  0  0  0  0  0  0  0
  1  2  1  0  0  0  0
  2  3  2  0  0  0  0
  2  7  1  0  0  0  0
  3  8  1  0  0  0  0
  4 11  1  0  0  0  0
  4  3  1  0  0  0  0
  5  4  2  0  0  0  0
  6  5  1  0  0  0  0
  6  1  2  0  0  0  0
  9  5  1  0  0  0  0
 10  6  1  0  0  0  0
 11 12  1  0  0  0  0
 12 13  2  0  0  0  0
 12 15  1  0  0  0  0
 14 11  1  0  0  0  0
 15 17  1  0  0  0  0
 15 16  1  0  0  0  0
 18 19  1  0  0  0  0
 18 15  1  0  0  0  0
 20 18  1  0  0  0  0
 21 22  1  0  0  0  0
 21 18  1  0  0  0  0
 22 23  2  0  0  0  0
 24 22  1  0  0  0  0
 25 24  1  0  0  0  0
 25 32  1  0  0  0  0
 26 25  2  0  0  0  0
 27 28  2  0  0  0  0
 27 26  1  0  0  0  0
 28 29  1  0  0  0  0
 29 30  1  0  0  0  0
 29 24  2  0  0  0  0
 30 21  1  0  0  0  0
 31 30  2  0  0  0  0
 33 26  1  0  0  0  0
 34 27  1  0  0  0  0
 35 28  1  0  0  0  0
 36 42  1  0  0  0  0
 36  1  1  0  0  0  0
 36 38  2  0  0  0  0
 37 36  2  0  0  0  0
 39 45  2  0  0  0  0
 39 40  1  0  0  0  0
 40 41  2  0  0  0  0
 41 43  1  0  0  0  0
 41 42  1  0  0  0  0
 42 47  1  0  0  0  0
 44 52  1  0  0  0  0
 44 43  2  0  0  0  0
 45 44  1  0  0  0  0
 46 40  1  0  0  0  0
 48 39  1  0  0  0  0
 49 48  1  0  0  0  0
 50 48  1  0  0  0  0
 51 48  1  0  0  0  0
 52 55  1  0  0  0  0
 53 52  1  0  0  0  0
 54 52  1  0  0  0  0
M  END
>  <MODEL>
1

>  <REMARK>
 VINA RESULT:   -10.241      0.000      0.000
 INTER + INTRA:         -14.422
 INTER:                 -13.502
 INTRA:                  -0.920
 UNBOUND:                 0.009
  Name = 
  8 active torsions:
  status: ('A' for Active; 'I' for Inactive)
    1  A    between atoms: C_1  and  C_2
    2  A    between atoms: N_5  and  S_6
    3  A    between atoms: S_6  and  C_9
    4  A    between atoms: C_12  and  N_13
    5  A    between atoms: C_14  and  C_16
    6  A    between atoms: C_16  and  C_17
    7  A    between atoms: C_17  and  N_18
    8  A    between atoms: C_32  and  C_33
                            x       y       z     vdW  Elec       q    Type
                         _______ _______ _______ _____ _____    ______ ____

>  <TORSDO>
F 8

$$$$
=
 OpenBabel07192307433D

 55 58  0  0  0  0  0  0  0  0999 V2000
    2.6750    4.8560   18.9400 C   0  0  0  0  0  0  0  0  0  0  0  0
    2.2580    4.8950   20.2700 C   0  0  0  0  0  0  0  0  0  0  0  0
    1.8700    6.1120   20.8410 C   0  0  0  0  0  0  0  0  0  0  0  0
    1.9180    7.2940   20.0950 C   0  0  0  0  0  0  0  0  0  0  0  0
    2.3720    7.2440   18.7680 C   0  0  0  0  0  0  0  0  0  0  0  0
    2.7520    6.0300   18.1870 C   0  0  0  0  0  0  0  0  0  0  0  0
    2.2160    3.9890   20.8730 H   0  0  0  0  0  0  0  0  0  0  0  0
    1.5380    6.0990   21.8750 H   0  0  0  0  0  0  0  0  0  0  0  0
    2.4320    8.1480   18.1660 H   0  0  0  0  0  0  0  0  0  0  0  0
    3.1010    6.0130   17.1570 H   0  0  0  0  0  0  0  0  0  0  0  0
    1.5370    8.5580   20.5930 N   0  0  0  0  0  0  0  0  0  0  0  0
    0.3720    8.8790   21.2670 C   0  0  0  0  0  0  0  0  0  0  0  0
   -0.5470    8.1140   21.5400 O   0  0  0  0  0  0  0  0  0  0  0  0
    2.2160    9.3010   20.4730 H   0  0  0  0  0  0  0  0  0  0  0  0
    0.2960   10.3480   21.6370 C   0  0  0  0  0  0  0  0  0  0  0  0
    1.0860   10.5410   22.3730 H   0  0  0  0  0  0  0  0  0  0  0  0
   -0.6510   10.5850   22.1290 H   0  0  0  0  0  0  0  0  0  0  0  0
    0.5100   11.2320   20.4140 C   0  0  0  0  0  0  0  0  0  0  0  0
    0.5530   12.2790   20.7370 H   0  0  0  0  0  0  0  0  0  0  0  0
    1.4730   11.0030   19.9410 H   0  0  0  0  0  0  0  0  0  0  0  0
   -0.5380   11.1480   19.4070 N   0  0  0  0  0  0  0  0  0  0  0  0
   -0.4920   10.3780   18.2750 C   0  0  0  0  0  0  0  0  0  0  0  0
    0.4140    9.6810   17.8520 O   0  0  0  0  0  0  0  0  0  0  0  0
   -1.7870   10.5200   17.6160 C   0  0  0  0  0  0  0  0  0  0  0  0
   -2.2520    9.9950   16.4260 C   0  0  0  0  0  0  0  0  0  0  0  0
   -3.5650   10.3090   16.0590 C   0  0  0  0  0  0  0  0  0  0  0  0
   -4.3700   11.1260   16.8790 C   0  0  0  0  0  0  0  0  0  0  0  0
   -3.8760   11.6450   18.0800 C   0  0  0  0  0  0  0  0  0  0  0  0
   -2.5760   11.3240   18.4180 C   0  0  0  0  0  0  0  0  0  0  0  0
   -1.7830   11.6920   19.5890 C   0  0  0  0  0  0  0  0  0  0  0  0
   -2.2170   12.3300   20.5290 O   0  0  0  0  0  0  0  0  0  0  0  0
   -1.6220    9.3690   15.8040 H   0  0  0  0  0  0  0  0  0  0  0  0
   -3.9720    9.9200   15.1270 H   0  0  0  0  0  0  0  0  0  0  0  0
   -5.3880   11.3570   16.5720 H   0  0  0  0  0  0  0  0  0  0  0  0
   -4.4840   12.2770   18.7230 H   0  0  0  0  0  0  0  0  0  0  0  0
    3.1470    3.3080   18.1990 S   0  0  0  0  0  0  0  0  0  0  0  0
    2.8190    3.3620   16.7900 O   0  0  0  0  0  0  0  0  0  0  0  0
    2.6290    2.2510   19.0440 O   0  0  0  0  0  0  0  0  0  0  0  0
    6.3710    4.4680   15.2930 C   0  0  0  0  0  0  0  0  0  0  0  0
    5.6770    3.6090   16.1130 C   0  0  0  0  0  0  0  0  0  0  0  0
    5.5560    4.0170   17.4190 C   0  0  0  0  0  0  0  0  0  0  0  0
    4.8260    3.2840   18.3760 N   0  0  0  0  0  0  0  0  0  0  0  0
    6.0500    5.1520   17.9220 N   0  0  0  0  0  0  0  0  0  0  0  0
    6.6900    5.9380   17.0400 C   0  0  0  0  0  0  0  0  0  0  0  0
    6.8790    5.6350   15.7410 N   0  0  0  0  0  0  0  0  0  0  0  0
    5.2550    2.6800   15.7570 H   0  0  0  0  0  0  0  0  0  0  0  0
    5.0900    3.5520   19.3220 H   0  0  0  0  0  0  0  0  0  0  0  0
    6.5690    4.1380   13.8450 C   0  0  0  0  0  0  0  0  0  0  0  0
    6.4900    5.0440   13.2360 H   0  0  0  0  0  0  0  0  0  0  0  0
    7.5590    3.6980   13.6780 H   0  0  0  0  0  0  0  0  0  0  0  0
    5.8170    3.4130   13.5160 H   0  0  0  0  0  0  0  0  0  0  0  0
    7.2540    7.2310   17.5380 C   0  0  0  0  0  0  0  0  0  0  0  0
    6.4710    7.9940   17.5580 H   0  0  0  0  0  0  0  0  0  0  0  0
    8.0640    7.5780   16.8870 H   0  0  0  0  0  0  0  0  0  0  0  0
    7.6560    7.1070   18.5480 H   0  0  0  0  0  0  0  0  0  0  0  0
  1  2  1  0  0  0  0
  2  3  2  0  0  0  0
  2  7  1  0  0  0  0
  3  8  1  0  0  0  0
  4 11  1  0  0  0  0
  4  3  1  0  0  0  0
  5  4  2  0  0  0  0
  6  5  1  0  0  0  0
  6  1  2  0  0  0  0
  9  5  1  0  0  0  0
 10  6  1  0  0  0  0
 11 12  1  0  0  0  0
 12 13  2  0  0  0  0
 12 15  1  0  0  0  0
 14 11  1  0  0  0  0
 15 17  1  0  0  0  0
 15 16  1  0  0  0  0
 18 19  1  0  0  0  0
 18 15  1  0  0  0  0
 20 18  1  0  0  0  0
 21 30  1  0  0  0  0
 21 18  1  0  0  0  0
 22 21  1  0  0  0  0
 23 22  2  0  0  0  0
 24 22  1  0  0  0  0
 24 29  1  0  0  0  0
 25 24  2  0  0  0  0
 26 25  1  0  0  0  0
 26 27  2  0  0  0  0
 27 28  1  0  0  0  0
 28 29  2  0  0  0  0
 28 35  1  0  0  0  0
 29 30  1  0  0  0  0
 30 31  2  0  0  0  0
 32 25  1  0  0  0  0
 33 26  1  0  0  0  0
 34 27  1  0  0  0  0
 36 42  1  0  0  0  0
 36  1  1  0  0  0  0
 36 38  2  0  0  0  0
 37 36  2  0  0  0  0
 39 45  2  0  0  0  0
 39 40  1  0  0  0  0
 40 41  2  0  0  0  0
 41 43  1  0  0  0  0
 41 42  1  0  0  0  0
 42 47  1  0  0  0  0
 44 52  1  0  0  0  0
 44 43  2  0  0  0  0
 45 44  1  0  0  0  0
 46 40  1  0  0  0  0
 48 39  1  0  0  0  0
 49 48  1  0  0  0  0
 50 48  1  0  0  0  0
 51 48  1  0  0  0  0
 52 53  1  0  0  0  0
 52 55  1  0  0  0  0
 54 52  1  0  0  0  0
M  END
>  <MODEL>
2

>  <REMARK>
 VINA RESULT:   -10.199      0.124      1.504
 INTER + INTRA:         -14.364
 INTER:                 -13.518
 INTRA:                  -0.845
 UNBOUND:                 0.009
  Name = 
  8 active torsions:
  status: ('A' for Active; 'I' for Inactive)
    1  A    between atoms: C_1  and  C_2
    2  A    between atoms: N_5  and  S_6
    3  A    between atoms: S_6  and  C_9
    4  A    between atoms: C_12  and  N_13
    5  A    between atoms: C_14  and  C_16
    6  A    between atoms: C_16  and  C_17
    7  A    between atoms: C_17  and  N_18
    8  A    between atoms: C_32  and  C_33
                            x       y       z     vdW  Elec       q    Type
                         _______ _______ _______ _____ _____    ______ ____

>  <TORSDO>
F 8

$$$$
=
 OpenBabel07192307433D

 55 58  0  0  0  0  0  0  0  0999 V2000
    2.7130    4.7520   18.9360 C   0  0  0  0  0  0  0  0  0  0  0  0
    2.7180    5.9750   18.2650 C   0  0  0  0  0  0  0  0  0  0  0  0
    2.3610    7.1420   18.9480 C   0  0  0  0  0  0  0  0  0  0  0  0
    1.9770    7.0910   20.2920 C   0  0  0  0  0  0  0  0  0  0  0  0
    1.9460    5.8490   20.9430 C   0  0  0  0  0  0  0  0  0  0  0  0
    2.3110    4.6790   20.2710 C   0  0  0  0  0  0  0  0  0  0  0  0
    3.0080    6.0410   17.2180 H   0  0  0  0  0  0  0  0  0  0  0  0
    2.3900    8.0780   18.3950 H   0  0  0  0  0  0  0  0  0  0  0  0
    1.6410    5.7740   21.9850 H   0  0  0  0  0  0  0  0  0  0  0  0
    2.2790    3.7260   20.7940 H   0  0  0  0  0  0  0  0  0  0  0  0
    1.6120    8.2210   21.0530 N   0  0  0  0  0  0  0  0  0  0  0  0
    0.3650    8.5180   21.5740 C   0  0  0  0  0  0  0  0  0  0  0  0
   -0.6550    7.8470   21.4510 O   0  0  0  0  0  0  0  0  0  0  0  0
    2.3650    8.8660   21.2710 H   0  0  0  0  0  0  0  0  0  0  0  0
    0.3430    9.8340   22.3260 C   0  0  0  0  0  0  0  0  0  0  0  0
    1.3840   10.1170   22.5210 H   0  0  0  0  0  0  0  0  0  0  0  0
   -0.1360    9.7240   23.3040 H   0  0  0  0  0  0  0  0  0  0  0  0
   -0.3390   10.9220   21.5060 C   0  0  0  0  0  0  0  0  0  0  0  0
   -0.9710   10.4500   20.7440 H   0  0  0  0  0  0  0  0  0  0  0  0
   -1.0000   11.5220   22.1420 H   0  0  0  0  0  0  0  0  0  0  0  0
    0.5680   11.8160   20.8000 N   0  0  0  0  0  0  0  0  0  0  0  0
    1.1890   11.5410   19.6110 C   0  0  0  0  0  0  0  0  0  0  0  0
    1.1710   10.5180   18.9490 O   0  0  0  0  0  0  0  0  0  0  0  0
    1.9150   12.7480   19.2250 C   0  0  0  0  0  0  0  0  0  0  0  0
    2.7350   12.9960   18.1410 C   0  0  0  0  0  0  0  0  0  0  0  0
    3.2880   14.2770   18.0380 C   0  0  0  0  0  0  0  0  0  0  0  0
    3.0090   15.2660   19.0040 C   0  0  0  0  0  0  0  0  0  0  0  0
    2.1730   14.9900   20.0920 C   0  0  0  0  0  0  0  0  0  0  0  0
    1.6440   13.7170   20.1730 C   0  0  0  0  0  0  0  0  0  0  0  0
    0.7450   13.1270   21.1630 C   0  0  0  0  0  0  0  0  0  0  0  0
    0.2530   13.7460   22.0870 O   0  0  0  0  0  0  0  0  0  0  0  0
    2.9420   12.2260   17.4060 H   0  0  0  0  0  0  0  0  0  0  0  0
    3.9430   14.5150   17.2020 H   0  0  0  0  0  0  0  0  0  0  0  0
    3.4510   16.2550   18.9030 H   0  0  0  0  0  0  0  0  0  0  0  0
    1.9500   15.7410   20.8460 H   0  0  0  0  0  0  0  0  0  0  0  0
    3.1900    3.2660   18.0810 S   0  0  0  0  0  0  0  0  0  0  0  0
    2.8600    3.4240   16.6800 O   0  0  0  0  0  0  0  0  0  0  0  0
    2.6790    2.1470   18.8450 O   0  0  0  0  0  0  0  0  0  0  0  0
    6.4080    4.4780   15.1880 C   0  0  0  0  0  0  0  0  0  0  0  0
    5.7150    3.6040   15.9930 C   0  0  0  0  0  0  0  0  0  0  0  0
    5.5980    3.9870   17.3070 C   0  0  0  0  0  0  0  0  0  0  0  0
    4.8700    3.2360   18.2530 N   0  0  0  0  0  0  0  0  0  0  0  0
    6.0950    5.1110   17.8300 N   0  0  0  0  0  0  0  0  0  0  0  0
    6.7330    5.9130   16.9630 C   0  0  0  0  0  0  0  0  0  0  0  0
    6.9190    5.6360   15.6580 N   0  0  0  0  0  0  0  0  0  0  0  0
    5.2900    2.6830   15.6210 H   0  0  0  0  0  0  0  0  0  0  0  0
    5.1370    3.4860   19.2030 H   0  0  0  0  0  0  0  0  0  0  0  0
    6.6010    4.1750   13.7330 C   0  0  0  0  0  0  0  0  0  0  0  0
    5.6330    4.0200   13.2470 H   0  0  0  0  0  0  0  0  0  0  0  0
    7.1100    5.0030   13.2280 H   0  0  0  0  0  0  0  0  0  0  0  0
    7.2160    3.2760   13.6130 H   0  0  0  0  0  0  0  0  0  0  0  0
    7.3000    7.1960   17.4840 C   0  0  0  0  0  0  0  0  0  0  0  0
    6.7680    8.0430   17.0430 H   0  0  0  0  0  0  0  0  0  0  0  0
    8.3630    7.2810   17.2320 H   0  0  0  0  0  0  0  0  0  0  0  0
    7.2020    7.2410   18.5730 H   0  0  0  0  0  0  0  0  0  0  0  0
  1  6  1  0  0  0  0
  2  1  2  0  0  0  0
  2  3  1  0  0  0  0
  3  4  2  0  0  0  0
  4  5  1  0  0  0  0
  4 11  1  0  0  0  0
  5  9  1  0  0  0  0
  6 10  1  0  0  0  0
  6  5  2  0  0  0  0
  7  2  1  0  0  0  0
  8  3  1  0  0  0  0
 11 14  1  0  0  0  0
 11 12  1  0  0  0  0
 12 15  1  0  0  0  0
 13 12  2  0  0  0  0
 15 16  1  0  0  0  0
 15 17  1  0  0  0  0
 18 20  1  0  0  0  0
 18 15  1  0  0  0  0
 19 18  1  0  0  0  0
 21 30  1  0  0  0  0
 21 18  1  0  0  0  0
 22 21  1  0  0  0  0
 23 22  2  0  0  0  0
 24 22  1  0  0  0  0
 24 29  1  0  0  0  0
 25 24  2  0  0  0  0
 26 25  1  0  0  0  0
 26 27  2  0  0  0  0
 27 28  1  0  0  0  0
 28 29  2  0  0  0  0
 28 35  1  0  0  0  0
 29 30  1  0  0  0  0
 30 31  2  0  0  0  0
 32 25  1  0  0  0  0
 33 26  1  0  0  0  0
 34 27  1  0  0  0  0
 36 42  1  0  0  0  0
 36 38  2  0  0  0  0
 36  1  1  0  0  0  0
 37 36  2  0  0  0  0
 39 45  2  0  0  0  0
 39 40  1  0  0  0  0
 40 41  2  0  0  0  0
 41 43  1  0  0  0  0
 41 42  1  0  0  0  0
 42 47  1  0  0  0  0
 44 52  1  0  0  0  0
 44 43  2  0  0  0  0
 45 44  1  0  0  0  0
 46 40  1  0  0  0  0
 48 39  1  0  0  0  0
 49 48  1  0  0  0  0
 50 48  1  0  0  0  0
 51 48  1  0  0  0  0
 52 55  1  0  0  0  0
 53 52  1  0  0  0  0
 54 52  1  0  0  0  0
M  END
>  <MODEL>
3

>  <REMARK>
 VINA RESULT:    -9.253      2.411      3.526
 INTER + INTRA:         -13.030
 INTER:                 -12.003
 INTRA:                  -1.027
 UNBOUND:                 0.009
  Name = 
  8 active torsions:
  status: ('A' for Active; 'I' for Inactive)
    1  A    between atoms: C_1  and  C_2
    2  A    between atoms: N_5  and  S_6
    3  A    between atoms: S_6  and  C_9
    4  A    between atoms: C_12  and  N_13
    5  A    between atoms: C_14  and  C_16
    6  A    between atoms: C_16  and  C_17
    7  A    between atoms: C_17  and  N_18
    8  A    between atoms: C_32  and  C_33
                            x       y       z     vdW  Elec       q    Type
                         _______ _______ _______ _____ _____    ______ ____

>  <TORSDO>
F 8

$$$$
=
 OpenBabel07192307433D

 55 58  0  0  0  0  0  0  0  0999 V2000
    2.7200    4.7370   18.9620 C   0  0  0  0  0  0  0  0  0  0  0  0
    2.3710    4.6150   20.3070 C   0  0  0  0  0  0  0  0  0  0  0  0
    1.9910    5.7500   21.0310 C   0  0  0  0  0  0  0  0  0  0  0  0
    1.9800    7.0100   20.4240 C   0  0  0  0  0  0  0  0  0  0  0  0
    2.3650    7.1210   19.0800 C   0  0  0  0  0  0  0  0  0  0  0  0
    2.7370    5.9900   18.3460 C   0  0  0  0  0  0  0  0  0  0  0  0
    2.3770    3.6460   20.8040 H   0  0  0  0  0  0  0  0  0  0  0  0
    1.7120    5.6130   22.0720 H   0  0  0  0  0  0  0  0  0  0  0  0
    2.3780    8.0880   18.5820 H   0  0  0  0  0  0  0  0  0  0  0  0
    3.0340    6.0980   17.3050 H   0  0  0  0  0  0  0  0  0  0  0  0
    1.6010    8.1990   21.0800 N   0  0  0  0  0  0  0  0  0  0  0  0
    0.3500    8.5280   21.5710 C   0  0  0  0  0  0  0  0  0  0  0  0
   -0.6630    7.8380   21.5080 O   0  0  0  0  0  0  0  0  0  0  0  0
    2.3460    8.8690   21.2420 H   0  0  0  0  0  0  0  0  0  0  0  0
    0.3120    9.9050   22.2040 C   0  0  0  0  0  0  0  0  0  0  0  0
    1.3490   10.2420   22.3170 H   0  0  0  0  0  0  0  0  0  0  0  0
   -0.1140    9.8680   23.2110 H   0  0  0  0  0  0  0  0  0  0  0  0
   -0.4530   10.8900   21.3260 C   0  0  0  0  0  0  0  0  0  0  0  0
   -0.9850   10.3310   20.5470 H   0  0  0  0  0  0  0  0  0  0  0  0
   -1.2120   11.4160   21.9170 H   0  0  0  0  0  0  0  0  0  0  0  0
    0.3750   11.8740   20.6440 N   0  0  0  0  0  0  0  0  0  0  0  0
    0.6400   13.1390   21.0960 C   0  0  0  0  0  0  0  0  0  0  0  0
    0.2120   13.7120   22.0830 O   0  0  0  0  0  0  0  0  0  0  0  0
    1.5890   13.7320   20.1570 C   0  0  0  0  0  0  0  0  0  0  0  0
    2.1460   14.9950   20.1210 C   0  0  0  0  0  0  0  0  0  0  0  0
    3.0450   15.2670   19.0840 C   0  0  0  0  0  0  0  0  0  0  0  0
    3.3630   14.2830   18.1250 C   0  0  0  0  0  0  0  0  0  0  0  0
    2.7860   13.0100   18.1850 C   0  0  0  0  0  0  0  0  0  0  0  0
    1.8980   12.7680   19.2150 C   0  0  0  0  0  0  0  0  0  0  0  0
    1.1470   11.5620   19.5550 C   0  0  0  0  0  0  0  0  0  0  0  0
    1.2610   10.5040   18.9660 O   0  0  0  0  0  0  0  0  0  0  0  0
    1.8910   15.7430   20.8630 H   0  0  0  0  0  0  0  0  0  0  0  0
    3.5050   16.2510   19.0140 H   0  0  0  0  0  0  0  0  0  0  0  0
    4.0650   14.5180   17.3270 H   0  0  0  0  0  0  0  0  0  0  0  0
    3.0190   12.2410   17.4530 H   0  0  0  0  0  0  0  0  0  0  0  0
    3.1820    3.2940   18.0280 S   0  0  0  0  0  0  0  0  0  0  0  0
    2.8430    3.5270   16.6400 O   0  0  0  0  0  0  0  0  0  0  0  0
    2.6670    2.1400   18.7360 O   0  0  0  0  0  0  0  0  0  0  0  0
    6.3910    4.5130   15.1290 C   0  0  0  0  0  0  0  0  0  0  0  0
    5.6950    3.6340   15.9270 C   0  0  0  0  0  0  0  0  0  0  0  0
    5.5910    4.0010   17.2470 C   0  0  0  0  0  0  0  0  0  0  0  0
    4.8620    3.2440   18.1870 N   0  0  0  0  0  0  0  0  0  0  0  0
    6.1040    5.1120   17.7820 N   0  0  0  0  0  0  0  0  0  0  0  0
    6.7440    5.9190   16.9210 C   0  0  0  0  0  0  0  0  0  0  0  0
    6.9170    5.6580   15.6110 N   0  0  0  0  0  0  0  0  0  0  0  0
    5.2570    2.7230   15.5450 H   0  0  0  0  0  0  0  0  0  0  0  0
    5.1380    3.4770   19.1380 H   0  0  0  0  0  0  0  0  0  0  0  0
    6.5710    4.2290   13.6690 C   0  0  0  0  0  0  0  0  0  0  0  0
    6.6450    3.1500   13.4990 H   0  0  0  0  0  0  0  0  0  0  0  0
    5.7210    4.6090   13.0910 H   0  0  0  0  0  0  0  0  0  0  0  0
    7.4780    4.7180   13.2980 H   0  0  0  0  0  0  0  0  0  0  0  0
    7.3280    7.1880   17.4560 C   0  0  0  0  0  0  0  0  0  0  0  0
    6.6940    8.0350   17.1800 H   0  0  0  0  0  0  0  0  0  0  0  0
    8.3320    7.3560   17.0490 H   0  0  0  0  0  0  0  0  0  0  0  0
    7.4060    7.1420   18.5470 H   0  0  0  0  0  0  0  0  0  0  0  0
  1  2  1  0  0  0  0
  2  7  1  0  0  0  0
  2  3  2  0  0  0  0
  3  8  1  0  0  0  0
  4  3  1  0  0  0  0
  4 11  1  0  0  0  0
  5  4  2  0  0  0  0
  6  1  2  0  0  0  0
  6  5  1  0  0  0  0
  9  5  1  0  0  0  0
 10  6  1  0  0  0  0
 11 14  1  0  0  0  0
 11 12  1  0  0  0  0
 12 15  1  0  0  0  0
 13 12  2  0  0  0  0
 15 16  1  0  0  0  0
 15 17  1  0  0  0  0
 18 20  1  0  0  0  0
 18 15  1  0  0  0  0
 19 18  1  0  0  0  0
 21 22  1  0  0  0  0
 21 18  1  0  0  0  0
 22 23  2  0  0  0  0
 24 22  1  0  0  0  0
 25 24  1  0  0  0  0
 25 32  1  0  0  0  0
 26 25  2  0  0  0  0
 27 28  2  0  0  0  0
 27 26  1  0  0  0  0
 28 29  1  0  0  0  0
 29 30  1  0  0  0  0
 29 24  2  0  0  0  0
 30 21  1  0  0  0  0
 31 30  2  0  0  0  0
 33 26  1  0  0  0  0
 34 27  1  0  0  0  0
 35 28  1  0  0  0  0
 36 42  1  0  0  0  0
 36 38  2  0  0  0  0
 36  1  1  0  0  0  0
 37 36  2  0  0  0  0
 39 45  2  0  0  0  0
 39 40  1  0  0  0  0
 40 41  2  0  0  0  0
 41 43  1  0  0  0  0
 41 42  1  0  0  0  0
 42 47  1  0  0  0  0
 44 52  1  0  0  0  0
 44 43  2  0  0  0  0
 45 44  1  0  0  0  0
 46 40  1  0  0  0  0
 48 39  1  0  0  0  0
 49 48  1  0  0  0  0
 50 48  1  0  0  0  0
 51 48  1  0  0  0  0
 52 55  1  0  0  0  0
 53 52  1  0  0  0  0
 54 52  1  0  0  0  0
M  END
>  <MODEL>
4

>  <REMARK>
 VINA RESULT:    -9.175      2.351      3.119
 INTER + INTRA:         -12.920
 INTER:                 -11.879
 INTRA:                  -1.042
 UNBOUND:                 0.009
  Name = 
  8 active torsions:
  status: ('A' for Active; 'I' for Inactive)
    1  A    between atoms: C_1  and  C_2
    2  A    between atoms: N_5  and  S_6
    3  A    between atoms: S_6  and  C_9
    4  A    between atoms: C_12  and  N_13
    5  A    between atoms: C_14  and  C_16
    6  A    between atoms: C_16  and  C_17
    7  A    between atoms: C_17  and  N_18
    8  A    between atoms: C_32  and  C_33
                            x       y       z     vdW  Elec       q    Type
                         _______ _______ _______ _____ _____    ______ ____

>  <TORSDO>
F 8

$$$$
=
 OpenBabel07192307433D

 55 58  0  0  0  0  0  0  0  0999 V2000
    1.3590    8.8530   19.9040 C   0  0  0  0  0  0  0  0  0  0  0  0
    1.6570    9.3530   18.6360 C   0  0  0  0  0  0  0  0  0  0  0  0
    2.3500    8.5540   17.7210 C   0  0  0  0  0  0  0  0  0  0  0  0
    2.7650    7.2650   18.0720 C   0  0  0  0  0  0  0  0  0  0  0  0
    2.4860    6.7890   19.3620 C   0  0  0  0  0  0  0  0  0  0  0  0
    1.7850    7.5770   20.2800 C   0  0  0  0  0  0  0  0  0  0  0  0
    1.3500   10.3540   18.3400 H   0  0  0  0  0  0  0  0  0  0  0  0
    2.5520    8.9740   16.7380 H   0  0  0  0  0  0  0  0  0  0  0  0
    2.8050    5.7960   19.6700 H   0  0  0  0  0  0  0  0  0  0  0  0
    1.5800    7.1890   21.2750 H   0  0  0  0  0  0  0  0  0  0  0  0
    3.4580    6.3950   17.2060 N   0  0  0  0  0  0  0  0  0  0  0  0
    4.8270    6.3030   17.0240 C   0  0  0  0  0  0  0  0  0  0  0  0
    5.6840    6.9800   17.5830 O   0  0  0  0  0  0  0  0  0  0  0  0
    2.8830    5.7380   16.6890 H   0  0  0  0  0  0  0  0  0  0  0  0
    5.2120    5.2600   15.9930 C   0  0  0  0  0  0  0  0  0  0  0  0
    6.1570    5.5810   15.5400 H   0  0  0  0  0  0  0  0  0  0  0  0
    4.4790    5.2140   15.1810 H   0  0  0  0  0  0  0  0  0  0  0  0
    5.3920    3.8920   16.6390 C   0  0  0  0  0  0  0  0  0  0  0  0
    5.2720    3.1180   15.8710 H   0  0  0  0  0  0  0  0  0  0  0  0
    6.4080    3.7900   17.0390 H   0  0  0  0  0  0  0  0  0  0  0  0
    4.4400    3.5830   17.6960 N   0  0  0  0  0  0  0  0  0  0  0  0
    4.6750    3.7120   19.0390 C   0  0  0  0  0  0  0  0  0  0  0  0
    5.6980    4.0360   19.6160 O   0  0  0  0  0  0  0  0  0  0  0  0
    3.4210    3.3950   19.7180 C   0  0  0  0  0  0  0  0  0  0  0  0
    3.1210    3.3310   21.0650 C   0  0  0  0  0  0  0  0  0  0  0  0
    1.8050    3.0040   21.4110 C   0  0  0  0  0  0  0  0  0  0  0  0
    0.8360    2.7550   20.4170 C   0  0  0  0  0  0  0  0  0  0  0  0
    1.1650    2.8280   19.0600 C   0  0  0  0  0  0  0  0  0  0  0  0
    2.4710    3.1490   18.7440 C   0  0  0  0  0  0  0  0  0  0  0  0
    3.1200    3.3100   17.4450 C   0  0  0  0  0  0  0  0  0  0  0  0
    2.5340    3.2410   16.3810 O   0  0  0  0  0  0  0  0  0  0  0  0
    3.8760    3.5230   21.8190 H   0  0  0  0  0  0  0  0  0  0  0  0
    1.5240    2.9380   22.4600 H   0  0  0  0  0  0  0  0  0  0  0  0
   -0.1810    2.5020   20.7100 H   0  0  0  0  0  0  0  0  0  0  0  0
    0.4300    2.6380   18.2810 H   0  0  0  0  0  0  0  0  0  0  0  0
    0.4560    9.8540   21.0660 S   0  0  0  0  0  0  0  0  0  0  0  0
    1.3240   10.1340   22.1910 O   0  0  0  0  0  0  0  0  0  0  0  0
   -0.8360    9.2290   21.2600 O   0  0  0  0  0  0  0  0  0  0  0  0
   -2.7860   10.8720   18.1260 C   0  0  0  0  0  0  0  0  0  0  0  0
   -1.4880   10.6730   18.5370 C   0  0  0  0  0  0  0  0  0  0  0  0
   -1.1020   11.4110   19.6300 C   0  0  0  0  0  0  0  0  0  0  0  0
    0.1750   11.2850   20.2150 N   0  0  0  0  0  0  0  0  0  0  0  0
   -1.8780   12.2740   20.2910 N   0  0  0  0  0  0  0  0  0  0  0  0
   -3.1350   12.3820   19.8320 C   0  0  0  0  0  0  0  0  0  0  0  0
   -3.6200   11.7190   18.7650 N   0  0  0  0  0  0  0  0  0  0  0  0
   -0.8190    9.9850   18.0400 H   0  0  0  0  0  0  0  0  0  0  0  0
    0.3940   12.0940   20.7930 H   0  0  0  0  0  0  0  0  0  0  0  0
   -3.3290   10.1230   16.9480 C   0  0  0  0  0  0  0  0  0  0  0  0
   -4.0780   10.7280   16.4270 H   0  0  0  0  0  0  0  0  0  0  0  0
   -2.5300    9.8810   16.2380 H   0  0  0  0  0  0  0  0  0  0  0  0
   -3.7860    9.1820   17.2750 H   0  0  0  0  0  0  0  0  0  0  0  0
   -4.0590   13.3220   20.5400 C   0  0  0  0  0  0  0  0  0  0  0  0
   -4.8150   13.6940   19.8440 H   0  0  0  0  0  0  0  0  0  0  0  0
   -3.5070   14.1770   20.9460 H   0  0  0  0  0  0  0  0  0  0  0  0
   -4.5580   12.8130   21.3700 H   0  0  0  0  0  0  0  0  0  0  0  0
  1  6  1  0  0  0  0
  1 36  1  0  0  0  0
  2  1  2  0  0  0  0
  3  4  2  0  0  0  0
  3  2  1  0  0  0  0
  4  5  1  0  0  0  0
  5  9  1  0  0  0  0
  5  6  2  0  0  0  0
  6 10  1  0  0  0  0
  7  2  1  0  0  0  0
  8  3  1  0  0  0  0
 11  4  1  0  0  0  0
 12 11  1  0  0  0  0
 12 13  2  0  0  0  0
 14 11  1  0  0  0  0
 15 18  1  0  0  0  0
 15 12  1  0  0  0  0
 16 15  1  0  0  0  0
 17 15  1  0  0  0  0
 18 20  1  0  0  0  0
 18 21  1  0  0  0  0
 19 18  1  0  0  0  0
 21 22  1  0  0  0  0
 22 23  2  0  0  0  0
 22 24  1  0  0  0  0
 24 25  1  0  0  0  0
 25 26  2  0  0  0  0
 25 32  1  0  0  0  0
 26 33  1  0  0  0  0
 27 34  1  0  0  0  0
 27 26  1  0  0  0  0
 28 27  2  0  0  0  0
 29 28  1  0  0  0  0
 29 24  2  0  0  0  0
 30 21  1  0  0  0  0
 30 29  1  0  0  0  0
 31 30  2  0  0  0  0
 35 28  1  0  0  0  0
 36 38  2  0  0  0  0
 36 37  2  0  0  0  0
 39 40  1  0  0  0  0
 39 45  2  0  0  0  0
 40 41  2  0  0  0  0
 41 42  1  0  0  0  0
 41 43  1  0  0  0  0
 42 47  1  0  0  0  0
 42 36  1  0  0  0  0
 44 43  2  0  0  0  0
 44 52  1  0  0  0  0
 45 44  1  0  0  0  0
 46 40  1  0  0  0  0
 48 51  1  0  0  0  0
 48 39  1  0  0  0  0
 49 48  1  0  0  0  0
 50 48  1  0  0  0  0
 52 54  1  0  0  0  0
 52 55  1  0  0  0  0
 53 52  1  0  0  0  0
M  END
>  <MODEL>
5

>  <REMARK>
 VINA RESULT:    -8.924      2.396      9.038
 INTER + INTRA:         -12.567
 INTER:                 -11.590
 INTRA:                  -0.977
 UNBOUND:                 0.009
  Name = 
  8 active torsions:
  status: ('A' for Active; 'I' for Inactive)
    1  A    between atoms: C_1  and  C_2
    2  A    between atoms: N_5  and  S_6
    3  A    between atoms: S_6  and  C_9
    4  A    between atoms: C_12  and  N_13
    5  A    between atoms: C_14  and  C_16
    6  A    between atoms: C_16  and  C_17
    7  A    between atoms: C_17  and  N_18
    8  A    between atoms: C_32  and  C_33
                            x       y       z     vdW  Elec       q    Type
                         _______ _______ _______ _____ _____    ______ ____

>  <TORSDO>
F 8

$$$$
=
 OpenBabel07192307433D

 55 58  0  0  0  0  0  0  0  0999 V2000
    2.8680    5.0000   18.9550 C   0  0  0  0  0  0  0  0  0  0  0  0
    2.5960    5.5060   20.2260 C   0  0  0  0  0  0  0  0  0  0  0  0
    2.1700    6.8300   20.3690 C   0  0  0  0  0  0  0  0  0  0  0  0
    2.0350    7.6600   19.2500 C   0  0  0  0  0  0  0  0  0  0  0  0
    2.3440    7.1460   17.9820 C   0  0  0  0  0  0  0  0  0  0  0  0
    2.7610    5.8200   17.8290 C   0  0  0  0  0  0  0  0  0  0  0  0
    2.6980    4.8830   21.1130 H   0  0  0  0  0  0  0  0  0  0  0  0
    1.9540    7.1840   21.3740 H   0  0  0  0  0  0  0  0  0  0  0  0
    2.2600    7.7680   17.0940 H   0  0  0  0  0  0  0  0  0  0  0  0
    2.9960    5.4420   16.8370 H   0  0  0  0  0  0  0  0  0  0  0  0
    1.6030    9.0010   19.3090 N   0  0  0  0  0  0  0  0  0  0  0  0
    0.5840    9.5230   20.0860 C   0  0  0  0  0  0  0  0  0  0  0  0
   -0.1380    8.9000   20.8580 O   0  0  0  0  0  0  0  0  0  0  0  0
    2.1300    9.6580   18.7440 H   0  0  0  0  0  0  0  0  0  0  0  0
    0.3910   11.0120   19.8740 C   0  0  0  0  0  0  0  0  0  0  0  0
   -0.6180   11.1570   19.4690 H   0  0  0  0  0  0  0  0  0  0  0  0
    1.0840   11.4000   19.1220 H   0  0  0  0  0  0  0  0  0  0  0  0
    0.5300   11.7740   21.1860 C   0  0  0  0  0  0  0  0  0  0  0  0
    0.9670   11.1070   21.9390 H   0  0  0  0  0  0  0  0  0  0  0  0
    1.2210   12.6170   21.0660 H   0  0  0  0  0  0  0  0  0  0  0  0
   -0.7210   12.2710   21.7420 N   0  0  0  0  0  0  0  0  0  0  0  0
   -1.4960   13.2580   21.1970 C   0  0  0  0  0  0  0  0  0  0  0  0
   -1.2890   13.9470   20.2130 O   0  0  0  0  0  0  0  0  0  0  0  0
   -2.6960   13.3570   22.0230 C   0  0  0  0  0  0  0  0  0  0  0  0
   -3.7760   14.2150   21.9400 C   0  0  0  0  0  0  0  0  0  0  0  0
   -4.7930   14.0540   22.8870 C   0  0  0  0  0  0  0  0  0  0  0  0
   -4.7100   13.0520   23.8760 C   0  0  0  0  0  0  0  0  0  0  0  0
   -3.6070   12.1950   23.9370 C   0  0  0  0  0  0  0  0  0  0  0  0
   -2.6140   12.3760   22.9940 C   0  0  0  0  0  0  0  0  0  0  0  0
   -1.3610   11.6540   22.7860 C   0  0  0  0  0  0  0  0  0  0  0  0
   -1.0280   10.6750   23.4270 O   0  0  0  0  0  0  0  0  0  0  0  0
   -3.8260   14.9820   21.1750 H   0  0  0  0  0  0  0  0  0  0  0  0
   -5.6610   14.7110   22.8620 H   0  0  0  0  0  0  0  0  0  0  0  0
   -5.5140   12.9470   24.6020 H   0  0  0  0  0  0  0  0  0  0  0  0
   -3.5270   11.4190   24.6940 H   0  0  0  0  0  0  0  0  0  0  0  0
    3.3870    3.3090   18.7620 S   0  0  0  0  0  0  0  0  0  0  0  0
    2.9450    2.8450   17.4630 O   0  0  0  0  0  0  0  0  0  0  0  0
    3.0140    2.6040   19.9710 O   0  0  0  0  0  0  0  0  0  0  0  0
    6.2180    4.4590   15.4680 C   0  0  0  0  0  0  0  0  0  0  0  0
    5.6740    3.6200   16.4120 C   0  0  0  0  0  0  0  0  0  0  0  0
    5.6480    4.1180   17.6910 C   0  0  0  0  0  0  0  0  0  0  0  0
    5.0720    3.4130   18.7680 N   0  0  0  0  0  0  0  0  0  0  0  0
    6.1020    5.3190   18.0610 N   0  0  0  0  0  0  0  0  0  0  0  0
    6.5920    6.0770   17.0660 C   0  0  0  0  0  0  0  0  0  0  0  0
    6.6780    5.6890   15.7790 N   0  0  0  0  0  0  0  0  0  0  0  0
    5.2900    2.6400   16.1670 H   0  0  0  0  0  0  0  0  0  0  0  0
    5.4050    3.7700   19.6600 H   0  0  0  0  0  0  0  0  0  0  0  0
    6.2990    4.0320   14.0330 C   0  0  0  0  0  0  0  0  0  0  0  0
    7.3100    3.6830   13.7990 H   0  0  0  0  0  0  0  0  0  0  0  0
    5.5980    3.2160   13.8300 H   0  0  0  0  0  0  0  0  0  0  0  0
    6.0430    4.8700   13.3750 H   0  0  0  0  0  0  0  0  0  0  0  0
    7.1030    7.4400   17.4130 C   0  0  0  0  0  0  0  0  0  0  0  0
    6.2840    8.1630   17.3750 H   0  0  0  0  0  0  0  0  0  0  0  0
    7.8800    7.7540   16.7070 H   0  0  0  0  0  0  0  0  0  0  0  0
    7.5340    7.4410   18.4180 H   0  0  0  0  0  0  0  0  0  0  0  0
  1  2  1  0  0  0  0
  2  3  2  0  0  0  0
  2  7  1  0  0  0  0
  3  8  1  0  0  0  0
  4 11  1  0  0  0  0
  4  3  1  0  0  0  0
  5  4  2  0  0  0  0
  6  5  1  0  0  0  0
  6  1  2  0  0  0  0
  9  5  1  0  0  0  0
 10  6  1  0  0  0  0
 11 12  1  0  0  0  0
 12 13  2  0  0  0  0
 14 11  1  0  0  0  0
 15 12  1  0  0  0  0
 15 18  1  0  0  0  0
 16 15  1  0  0  0  0
 17 15  1  0  0  0  0
 18 21  1  0  0  0  0
 18 19  1  0  0  0  0
 20 18  1  0  0  0  0
 21 30  1  0  0  0  0
 22 21  1  0  0  0  0
 22 24  1  0  0  0  0
 23 22  2  0  0  0  0
 24 29  1  0  0  0  0
 25 24  2  0  0  0  0
 25 26  1  0  0  0  0
 26 27  2  0  0  0  0
 27 28  1  0  0  0  0
 27 34  1  0  0  0  0
 28 35  1  0  0  0  0
 29 28  2  0  0  0  0
 30 29  1  0  0  0  0
 30 31  2  0  0  0  0
 32 25  1  0  0  0  0
 33 26  1  0  0  0  0
 36 42  1  0  0  0  0
 36  1  1  0  0  0  0
 36 38  2  0  0  0  0
 37 36  2  0  0  0  0
 39 45  2  0  0  0  0
 39 40  1  0  0  0  0
 40 41  2  0  0  0  0
 41 43  1  0  0  0  0
 41 42  1  0  0  0  0
 42 47  1  0  0  0  0
 44 52  1  0  0  0  0
 44 43  2  0  0  0  0
 45 44  1  0  0  0  0
 46 40  1  0  0  0  0
 48 39  1  0  0  0  0
 49 48  1  0  0  0  0
 50 48  1  0  0  0  0
 51 48  1  0  0  0  0
 52 55  1  0  0  0  0
 53 52  1  0  0  0  0
 54 52  1  0  0  0  0
M  END
>  <MODEL>
6

>  <REMARK>
 VINA RESULT:    -8.890      2.254      3.204
 INTER + INTRA:         -12.519
 INTER:                 -12.053
 INTRA:                  -0.466
 UNBOUND:                 0.009
  Name = 
  8 active torsions:
  status: ('A' for Active; 'I' for Inactive)
    1  A    between atoms: C_1  and  C_2
    2  A    between atoms: N_5  and  S_6
    3  A    between atoms: S_6  and  C_9
    4  A    between atoms: C_12  and  N_13
    5  A    between atoms: C_14  and  C_16
    6  A    between atoms: C_16  and  C_17
    7  A    between atoms: C_17  and  N_18
    8  A    between atoms: C_32  and  C_33
                            x       y       z     vdW  Elec       q    Type
                         _______ _______ _______ _____ _____    ______ ____

>  <TORSDO>
F 8

$$$$
=
 OpenBabel07192307433D

 55 58  0  0  0  0  0  0  0  0999 V2000
    2.5210    4.7780   18.8320 C   0  0  0  0  0  0  0  0  0  0  0  0
    2.6770    6.0030   18.1840 C   0  0  0  0  0  0  0  0  0  0  0  0
    2.4130    7.1910   18.8730 C   0  0  0  0  0  0  0  0  0  0  0  0
    1.9720    7.1600   20.2010 C   0  0  0  0  0  0  0  0  0  0  0  0
    1.7880    5.9190   20.8270 C   0  0  0  0  0  0  0  0  0  0  0  0
    2.0590    4.7270   20.1490 C   0  0  0  0  0  0  0  0  0  0  0  0
    3.0140    6.0540   17.1500 H   0  0  0  0  0  0  0  0  0  0  0  0
    2.5600    8.1260   18.3400 H   0  0  0  0  0  0  0  0  0  0  0  0
    1.4350    5.8600   21.8550 H   0  0  0  0  0  0  0  0  0  0  0  0
    1.9090    3.7750   20.6530 H   0  0  0  0  0  0  0  0  0  0  0  0
    1.6930    8.3110   20.9670 N   0  0  0  0  0  0  0  0  0  0  0  0
    0.4790    8.6800   21.5190 C   0  0  0  0  0  0  0  0  0  0  0  0
   -0.5810    8.0700   21.4250 O   0  0  0  0  0  0  0  0  0  0  0  0
    2.4870    8.9110   21.1650 H   0  0  0  0  0  0  0  0  0  0  0  0
    0.5530    9.9960   22.2680 C   0  0  0  0  0  0  0  0  0  0  0  0
    1.5290   10.0350   22.7650 H   0  0  0  0  0  0  0  0  0  0  0  0
   -0.2000   10.0460   23.0600 H   0  0  0  0  0  0  0  0  0  0  0  0
    0.4160   11.1770   21.3140 C   0  0  0  0  0  0  0  0  0  0  0  0
    0.9290   12.0450   21.7480 H   0  0  0  0  0  0  0  0  0  0  0  0
    0.9120   10.9570   20.3610 H   0  0  0  0  0  0  0  0  0  0  0  0
   -0.9530   11.5930   21.0450 N   0  0  0  0  0  0  0  0  0  0  0  0
   -1.6970   12.4320   21.8300 C   0  0  0  0  0  0  0  0  0  0  0  0
   -1.4150   12.9380   22.9020 O   0  0  0  0  0  0  0  0  0  0  0  0
   -2.9600   12.6530   21.1320 C   0  0  0  0  0  0  0  0  0  0  0  0
   -4.0760   13.3790   21.5010 C   0  0  0  0  0  0  0  0  0  0  0  0
   -5.1450   13.4090   20.5990 C   0  0  0  0  0  0  0  0  0  0  0  0
   -5.0730   12.7270   19.3660 C   0  0  0  0  0  0  0  0  0  0  0  0
   -3.9300   12.0010   19.0150 C   0  0  0  0  0  0  0  0  0  0  0  0
   -2.8910   11.9820   19.9250 C   0  0  0  0  0  0  0  0  0  0  0  0
   -1.5830   11.3350   19.8550 C   0  0  0  0  0  0  0  0  0  0  0  0
   -1.1760   10.7300   18.8810 O   0  0  0  0  0  0  0  0  0  0  0  0
   -4.1190   13.8970   22.4520 H   0  0  0  0  0  0  0  0  0  0  0  0
   -6.0460   13.9660   20.8500 H   0  0  0  0  0  0  0  0  0  0  0  0
   -5.9170   12.7660   18.6820 H   0  0  0  0  0  0  0  0  0  0  0  0
   -3.8590   11.4680   18.0700 H   0  0  0  0  0  0  0  0  0  0  0  0
    2.8790    3.2630   17.9690 S   0  0  0  0  0  0  0  0  0  0  0  0
    2.5950    3.4640   16.5640 O   0  0  0  0  0  0  0  0  0  0  0  0
    2.2510    2.1870   18.7090 O   0  0  0  0  0  0  0  0  0  0  0  0
    6.2610    4.2900   15.1950 C   0  0  0  0  0  0  0  0  0  0  0  0
    5.4740    3.4520   15.9510 C   0  0  0  0  0  0  0  0  0  0  0  0
    5.3590    3.7950   17.2750 C   0  0  0  0  0  0  0  0  0  0  0  0
    4.5440    3.0780   18.1750 N   0  0  0  0  0  0  0  0  0  0  0  0
    5.9400    4.8510   17.8530 N   0  0  0  0  0  0  0  0  0  0  0  0
    6.6670    5.6240   17.0310 C   0  0  0  0  0  0  0  0  0  0  0  0
    6.8600    5.3800   15.7200 N   0  0  0  0  0  0  0  0  0  0  0  0
    4.9800    2.5870   15.5340 H   0  0  0  0  0  0  0  0  0  0  0  0
    4.8090    3.2670   19.1400 H   0  0  0  0  0  0  0  0  0  0  0  0
    6.4630    4.0260   13.7340 C   0  0  0  0  0  0  0  0  0  0  0  0
    6.8980    4.9050   13.2470 H   0  0  0  0  0  0  0  0  0  0  0  0
    7.1410    3.1790   13.5820 H   0  0  0  0  0  0  0  0  0  0  0  0
    5.5060    3.7830   13.2580 H   0  0  0  0  0  0  0  0  0  0  0  0
    7.3310    6.8320   17.6140 C   0  0  0  0  0  0  0  0  0  0  0  0
    7.1420    7.7020   16.9800 H   0  0  0  0  0  0  0  0  0  0  0  0
    8.4140    6.6820   17.6870 H   0  0  0  0  0  0  0  0  0  0  0  0
    6.9460    7.0310   18.6180 H   0  0  0  0  0  0  0  0  0  0  0  0
  1  6  1  0  0  0  0
  2  1  2  0  0  0  0
  2  3  1  0  0  0  0
  3  4  2  0  0  0  0
  4  5  1  0  0  0  0
  4 11  1  0  0  0  0
  5  9  1  0  0  0  0
  6 10  1  0  0  0  0
  6  5  2  0  0  0  0
  7  2  1  0  0  0  0
  8  3  1  0  0  0  0
 11 14  1  0  0  0  0
 11 12  1  0  0  0  0
 12 15  1  0  0  0  0
 13 12  2  0  0  0  0
 15 16  1  0  0  0  0
 15 17  1  0  0  0  0
 18 19  1  0  0  0  0
 18 15  1  0  0  0  0
 20 18  1  0  0  0  0
 21 18  1  0  0  0  0
 21 22  1  0  0  0  0
 22 23  2  0  0  0  0
 24 25  1  0  0  0  0
 24 22  1  0  0  0  0
 25 32  1  0  0  0  0
 26 33  1  0  0  0  0
 26 25  2  0  0  0  0
 27 26  1  0  0  0  0
 28 27  2  0  0  0  0
 28 29  1  0  0  0  0
 29 24  2  0  0  0  0
 30 29  1  0  0  0  0
 30 21  1  0  0  0  0
 31 30  2  0  0  0  0
 34 27  1  0  0  0  0
 35 28  1  0  0  0  0
 36 42  1  0  0  0  0
 36 38  2  0  0  0  0
 36  1  1  0  0  0  0
 37 36  2  0  0  0  0
 39 45  2  0  0  0  0
 39 40  1  0  0  0  0
 40 41  2  0  0  0  0
 41 43  1  0  0  0  0
 41 42  1  0  0  0  0
 42 47  1  0  0  0  0
 44 52  1  0  0  0  0
 44 43  2  0  0  0  0
 45 44  1  0  0  0  0
 46 40  1  0  0  0  0
 48 39  1  0  0  0  0
 49 48  1  0  0  0  0
 50 48  1  0  0  0  0
 51 48  1  0  0  0  0
 52 54  1  0  0  0  0
 52 55  1  0  0  0  0
 53 52  1  0  0  0  0
M  END
>  <MODEL>
7

>  <REMARK>
 VINA RESULT:    -8.851      1.398      2.058
 INTER + INTRA:         -12.464
 INTER:                 -11.753
 INTRA:                  -0.711
 UNBOUND:                 0.009
  Name = 
  8 active torsions:
  status: ('A' for Active; 'I' for Inactive)
    1  A    between atoms: C_1  and  C_2
    2  A    between atoms: N_5  and  S_6
    3  A    between atoms: S_6  and  C_9
    4  A    between atoms: C_12  and  N_13
    5  A    between atoms: C_14  and  C_16
    6  A    between atoms: C_16  and  C_17
    7  A    between atoms: C_17  and  N_18
    8  A    between atoms: C_32  and  C_33
                            x       y       z     vdW  Elec       q    Type
                         _______ _______ _______ _____ _____    ______ ____

>  <TORSDO>
F 8

$$$$
=
 OpenBabel07192307433D

 55 58  0  0  0  0  0  0  0  0999 V2000
    2.9330    4.8960   18.9400 C   0  0  0  0  0  0  0  0  0  0  0  0
    2.6880    5.4460   20.1980 C   0  0  0  0  0  0  0  0  0  0  0  0
    2.2450    6.7680   20.3030 C   0  0  0  0  0  0  0  0  0  0  0  0
    2.0670    7.5520   19.1580 C   0  0  0  0  0  0  0  0  0  0  0  0
    2.3500    6.9940   17.9020 C   0  0  0  0  0  0  0  0  0  0  0  0
    2.7830    5.6700   17.7870 C   0  0  0  0  0  0  0  0  0  0  0  0
    2.8230    4.8580   21.1040 H   0  0  0  0  0  0  0  0  0  0  0  0
    2.0520    7.1570   21.2990 H   0  0  0  0  0  0  0  0  0  0  0  0
    2.2320    7.5810   16.9930 H   0  0  0  0  0  0  0  0  0  0  0  0
    2.9970    5.2570   16.8040 H   0  0  0  0  0  0  0  0  0  0  0  0
    1.6160    8.8880   19.1770 N   0  0  0  0  0  0  0  0  0  0  0  0
    0.7010    9.4540   20.0470 C   0  0  0  0  0  0  0  0  0  0  0  0
    0.1060    8.8810   20.9550 O   0  0  0  0  0  0  0  0  0  0  0  0
    2.0460    9.5070   18.4980 H   0  0  0  0  0  0  0  0  0  0  0  0
    0.4460   10.9200   19.7560 C   0  0  0  0  0  0  0  0  0  0  0  0
   -0.5500   10.9960   19.3030 H   0  0  0  0  0  0  0  0  0  0  0  0
    1.1530   11.3070   19.0150 H   0  0  0  0  0  0  0  0  0  0  0  0
    0.4910   11.7480   21.0350 C   0  0  0  0  0  0  0  0  0  0  0  0
    0.9880   11.1640   21.8180 H   0  0  0  0  0  0  0  0  0  0  0  0
    1.0910   12.6530   20.8820 H   0  0  0  0  0  0  0  0  0  0  0  0
   -0.8100   12.1330   21.5620 N   0  0  0  0  0  0  0  0  0  0  0  0
   -1.3940   11.6200   22.6890 C   0  0  0  0  0  0  0  0  0  0  0  0
   -1.0020   10.7310   23.4250 O   0  0  0  0  0  0  0  0  0  0  0  0
   -2.6340   12.3620   22.8970 C   0  0  0  0  0  0  0  0  0  0  0  0
   -3.6160   12.2190   23.8570 C   0  0  0  0  0  0  0  0  0  0  0  0
   -4.7010   13.1020   23.7980 C   0  0  0  0  0  0  0  0  0  0  0  0
   -4.7740   14.0930   22.7970 C   0  0  0  0  0  0  0  0  0  0  0  0
   -3.7650   14.2180   21.8370 C   0  0  0  0  0  0  0  0  0  0  0  0
   -2.7080   13.3320   21.9140 C   0  0  0  0  0  0  0  0  0  0  0  0
   -1.5130   13.2080   21.0820 C   0  0  0  0  0  0  0  0  0  0  0  0
   -1.2360   13.9700   20.1760 O   0  0  0  0  0  0  0  0  0  0  0  0
   -3.5480   11.4520   24.6200 H   0  0  0  0  0  0  0  0  0  0  0  0
   -5.5000   13.0230   24.5330 H   0  0  0  0  0  0  0  0  0  0  0  0
   -5.6270   14.7670   22.7720 H   0  0  0  0  0  0  0  0  0  0  0  0
   -3.8070   14.9750   21.0580 H   0  0  0  0  0  0  0  0  0  0  0  0
    3.4720    3.2060   18.7970 S   0  0  0  0  0  0  0  0  0  0  0  0
    3.0230    2.6940   17.5200 O   0  0  0  0  0  0  0  0  0  0  0  0
    3.1230    2.5360   20.0330 O   0  0  0  0  0  0  0  0  0  0  0  0
    6.2380    4.4670   15.4880 C   0  0  0  0  0  0  0  0  0  0  0  0
    5.7190    3.6000   16.4210 C   0  0  0  0  0  0  0  0  0  0  0  0
    5.7070    4.0690   17.7110 C   0  0  0  0  0  0  0  0  0  0  0  0
    5.1560    3.3320   18.7800 N   0  0  0  0  0  0  0  0  0  0  0  0
    6.1510    5.2670   18.1010 N   0  0  0  0  0  0  0  0  0  0  0  0
    6.6160    6.0530   17.1170 C   0  0  0  0  0  0  0  0  0  0  0  0
    6.6860    5.6960   15.8200 N   0  0  0  0  0  0  0  0  0  0  0  0
    5.3440    2.6210   16.1600 H   0  0  0  0  0  0  0  0  0  0  0  0
    5.4980    3.6740   19.6750 H   0  0  0  0  0  0  0  0  0  0  0  0
    6.3030    4.0740   14.0430 C   0  0  0  0  0  0  0  0  0  0  0  0
    7.1090    4.6160   13.5390 H   0  0  0  0  0  0  0  0  0  0  0  0
    6.4950    3.0000   13.9400 H   0  0  0  0  0  0  0  0  0  0  0  0
    5.3510    4.2960   13.5480 H   0  0  0  0  0  0  0  0  0  0  0  0
    7.1130    7.4150   17.4860 C   0  0  0  0  0  0  0  0  0  0  0  0
    8.1980    7.3900   17.6200 H   0  0  0  0  0  0  0  0  0  0  0  0
    6.6530    7.7560   18.4200 H   0  0  0  0  0  0  0  0  0  0  0  0
    6.8680    8.1360   16.7000 H   0  0  0  0  0  0  0  0  0  0  0  0
  1  2  1  0  0  0  0
  2  3  2  0  0  0  0
  2  7  1  0  0  0  0
  3  8  1  0  0  0  0
  4 11  1  0  0  0  0
  4  3  1  0  0  0  0
  5  4  2  0  0  0  0
  6  5  1  0  0  0  0
  6  1  2  0  0  0  0
  9  5  1  0  0  0  0
 10  6  1  0  0  0  0
 11 12  1  0  0  0  0
 12 13  2  0  0  0  0
 14 11  1  0  0  0  0
 15 12  1  0  0  0  0
 15 18  1  0  0  0  0
 16 15  1  0  0  0  0
 17 15  1  0  0  0  0
 18 21  1  0  0  0  0
 18 19  1  0  0  0  0
 20 18  1  0  0  0  0
 21 22  1  0  0  0  0
 22 24  1  0  0  0  0
 22 23  2  0  0  0  0
 24 25  1  0  0  0  0
 25 32  1  0  0  0  0
 26 25  2  0  0  0  0
 26 33  1  0  0  0  0
 27 26  1  0  0  0  0
 28 29  1  0  0  0  0
 28 27  2  0  0  0  0
 29 24  2  0  0  0  0
 30 21  1  0  0  0  0
 30 29  1  0  0  0  0
 31 30  2  0  0  0  0
 34 27  1  0  0  0  0
 35 28  1  0  0  0  0
 36  1  1  0  0  0  0
 36 38  2  0  0  0  0
 37 36  2  0  0  0  0
 39 45  2  0  0  0  0
 39 40  1  0  0  0  0
 40 41  2  0  0  0  0
 41 43  1  0  0  0  0
 41 42  1  0  0  0  0
 42 36  1  0  0  0  0
 42 47  1  0  0  0  0
 44 52  1  0  0  0  0
 44 43  2  0  0  0  0
 45 44  1  0  0  0  0
 46 40  1  0  0  0  0
 48 39  1  0  0  0  0
 49 48  1  0  0  0  0
 50 48  1  0  0  0  0
 51 48  1  0  0  0  0
 52 53  1  0  0  0  0
 52 54  1  0  0  0  0
 55 52  1  0  0  0  0
M  END
>  <MODEL>
8

>  <REMARK>
 VINA RESULT:    -8.843      2.229      3.196
 INTER + INTRA:         -12.453
 INTER:                 -12.014
 INTRA:                  -0.439
 UNBOUND:                 0.009
  Name = 
  8 active torsions:
  status: ('A' for Active; 'I' for Inactive)
    1  A    between atoms: C_1  and  C_2
    2  A    between atoms: N_5  and  S_6
    3  A    between atoms: S_6  and  C_9
    4  A    between atoms: C_12  and  N_13
    5  A    between atoms: C_14  and  C_16
    6  A    between atoms: C_16  and  C_17
    7  A    between atoms: C_17  and  N_18
    8  A    between atoms: C_32  and  C_33
                            x       y       z     vdW  Elec       q    Type
                         _______ _______ _______ _____ _____    ______ ____

>  <TORSDO>
F 8

$$$$
=
 OpenBabel07192307433D

 55 58  0  0  0  0  0  0  0  0999 V2000
    1.2240    8.8970   19.8640 C   0  0  0  0  0  0  0  0  0  0  0  0
    1.4710    9.3730   18.5760 C   0  0  0  0  0  0  0  0  0  0  0  0
    2.1990    8.5880   17.6760 C   0  0  0  0  0  0  0  0  0  0  0  0
    2.7000    7.3410   18.0620 C   0  0  0  0  0  0  0  0  0  0  0  0
    2.4710    6.8920   19.3710 C   0  0  0  0  0  0  0  0  0  0  0  0
    1.7360    7.6650   20.2750 C   0  0  0  0  0  0  0  0  0  0  0  0
    1.0960   10.3420   18.2530 H   0  0  0  0  0  0  0  0  0  0  0  0
    2.3590    8.9860   16.6770 H   0  0  0  0  0  0  0  0  0  0  0  0
    2.8580    5.9310   19.7060 H   0  0  0  0  0  0  0  0  0  0  0  0
    1.5710    7.2990   21.2860 H   0  0  0  0  0  0  0  0  0  0  0  0
    3.4340    6.4870   17.2120 N   0  0  0  0  0  0  0  0  0  0  0  0
    4.8080    6.4260   17.0640 C   0  0  0  0  0  0  0  0  0  0  0  0
    5.6360    7.1220   17.6440 O   0  0  0  0  0  0  0  0  0  0  0  0
    2.8870    5.8180   16.6820 H   0  0  0  0  0  0  0  0  0  0  0  0
    5.2420    5.3930   16.0430 C   0  0  0  0  0  0  0  0  0  0  0  0
    6.1990    5.7270   15.6240 H   0  0  0  0  0  0  0  0  0  0  0  0
    4.5390    5.3420   15.2060 H   0  0  0  0  0  0  0  0  0  0  0  0
    5.4170    4.0240   16.6890 C   0  0  0  0  0  0  0  0  0  0  0  0
    5.3240    3.2510   15.9160 H   0  0  0  0  0  0  0  0  0  0  0  0
    6.4220    3.9290   17.1160 H   0  0  0  0  0  0  0  0  0  0  0  0
    4.4390    3.7030   17.7190 N   0  0  0  0  0  0  0  0  0  0  0  0
    4.6420    3.8140   19.0690 C   0  0  0  0  0  0  0  0  0  0  0  0
    5.6510    4.1280   19.6750 O   0  0  0  0  0  0  0  0  0  0  0  0
    3.3720    3.4910   19.7140 C   0  0  0  0  0  0  0  0  0  0  0  0
    3.0390    3.4090   21.0520 C   0  0  0  0  0  0  0  0  0  0  0  0
    1.7150    3.0800   21.3620 C   0  0  0  0  0  0  0  0  0  0  0  0
    0.7690    2.8470   20.3420 C   0  0  0  0  0  0  0  0  0  0  0  0
    1.1310    2.9370   18.9940 C   0  0  0  0  0  0  0  0  0  0  0  0
    2.4450    3.2590   18.7140 C   0  0  0  0  0  0  0  0  0  0  0  0
    3.1250    3.4360   17.4330 C   0  0  0  0  0  0  0  0  0  0  0  0
    2.5650    3.3830   16.3540 O   0  0  0  0  0  0  0  0  0  0  0  0
    3.7760    3.5900   21.8260 H   0  0  0  0  0  0  0  0  0  0  0  0
    1.4090    3.0020   22.4030 H   0  0  0  0  0  0  0  0  0  0  0  0
   -0.2550    2.5920   20.6070 H   0  0  0  0  0  0  0  0  0  0  0  0
    0.4150    2.7590   18.1960 H   0  0  0  0  0  0  0  0  0  0  0  0
    0.2780    9.8790   21.0090 S   0  0  0  0  0  0  0  0  0  0  0  0
    1.1540   10.8800   21.5780 O   0  0  0  0  0  0  0  0  0  0  0  0
   -0.4560    8.9620   21.8570 O   0  0  0  0  0  0  0  0  0  0  0  0
   -2.0670   13.6500   21.6910 C   0  0  0  0  0  0  0  0  0  0  0  0
   -1.9040   12.3010   21.4750 C   0  0  0  0  0  0  0  0  0  0  0  0
   -1.1740   11.9730   20.3590 C   0  0  0  0  0  0  0  0  0  0  0  0
   -0.8640   10.6390   20.0230 N   0  0  0  0  0  0  0  0  0  0  0  0
   -0.6360   12.8460   19.5040 N   0  0  0  0  0  0  0  0  0  0  0  0
   -0.8270   14.1390   19.8110 C   0  0  0  0  0  0  0  0  0  0  0  0
   -1.5330   14.5790   20.8700 N   0  0  0  0  0  0  0  0  0  0  0  0
   -2.3160   11.5530   22.1360 H   0  0  0  0  0  0  0  0  0  0  0  0
   -0.6000   10.5590   19.0430 H   0  0  0  0  0  0  0  0  0  0  0  0
   -2.8410   14.1380   22.8780 C   0  0  0  0  0  0  0  0  0  0  0  0
   -2.2530   14.0070   23.7920 H   0  0  0  0  0  0  0  0  0  0  0  0
   -3.0820   15.2020   22.7750 H   0  0  0  0  0  0  0  0  0  0  0  0
   -3.7820   13.5850   22.9690 H   0  0  0  0  0  0  0  0  0  0  0  0
   -0.2350   15.1680   18.9000 C   0  0  0  0  0  0  0  0  0  0  0  0
    0.6840   15.5680   19.3380 H   0  0  0  0  0  0  0  0  0  0  0  0
   -0.9350   15.9960   18.7420 H   0  0  0  0  0  0  0  0  0  0  0  0
   -0.0030   14.7270   17.9260 H   0  0  0  0  0  0  0  0  0  0  0  0
  1  6  1  0  0  0  0
  1 36  1  0  0  0  0
  2  1  2  0  0  0  0
  3  4  2  0  0  0  0
  3  2  1  0  0  0  0
  4  5  1  0  0  0  0
  5  9  1  0  0  0  0
  5  6  2  0  0  0  0
  6 10  1  0  0  0  0
  7  2  1  0  0  0  0
  8  3  1  0  0  0  0
 11  4  1  0  0  0  0
 12 11  1  0  0  0  0
 12 13  2  0  0  0  0
 14 11  1  0  0  0  0
 15 18  1  0  0  0  0
 15 12  1  0  0  0  0
 16 15  1  0  0  0  0
 17 15  1  0  0  0  0
 18 20  1  0  0  0  0
 18 21  1  0  0  0  0
 19 18  1  0  0  0  0
 21 22  1  0  0  0  0
 22 23  2  0  0  0  0
 22 24  1  0  0  0  0
 24 25  1  0  0  0  0
 25 26  2  0  0  0  0
 25 32  1  0  0  0  0
 26 33  1  0  0  0  0
 27 34  1  0  0  0  0
 27 26  1  0  0  0  0
 28 27  2  0  0  0  0
 29 28  1  0  0  0  0
 29 24  2  0  0  0  0
 30 21  1  0  0  0  0
 30 29  1  0  0  0  0
 31 30  2  0  0  0  0
 35 28  1  0  0  0  0
 36 37  2  0  0  0  0
 36 38  2  0  0  0  0
 39 48  1  0  0  0  0
 40 39  1  0  0  0  0
 40 46  1  0  0  0  0
 41 40  2  0  0  0  0
 42 41  1  0  0  0  0
 42 36  1  0  0  0  0
 43 44  2  0  0  0  0
 43 41  1  0  0  0  0
 44 45  1  0  0  0  0
 45 39  2  0  0  0  0
 47 42  1  0  0  0  0
 48 51  1  0  0  0  0
 48 49  1  0  0  0  0
 50 48  1  0  0  0  0
 52 53  1  0  0  0  0
 52 44  1  0  0  0  0
 54 52  1  0  0  0  0
 55 52  1  0  0  0  0
M  END
>  <MODEL>
9

>  <REMARK>
 VINA RESULT:    -8.705      2.914      9.320
 INTER + INTRA:         -12.259
 INTER:                 -11.122
 INTRA:                  -1.137
 UNBOUND:                 0.009
  Name = 
  8 active torsions:
  status: ('A' for Active; 'I' for Inactive)
    1  A    between atoms: C_1  and  C_2
    2  A    between atoms: N_5  and  S_6
    3  A    between atoms: S_6  and  C_9
    4  A    between atoms: C_12  and  N_13
    5  A    between atoms: C_14  and  C_16
    6  A    between atoms: C_16  and  C_17
    7  A    between atoms: C_17  and  N_18
    8  A    between atoms: C_32  and  C_33
                            x       y       z     vdW  Elec       q    Type
                         _______ _______ _______ _____ _____    ______ ____

>  <TORSDO>
F 8

$$$$
=
 OpenBabel07192307433D

 55 58  0  0  0  0  0  0  0  0999 V2000
    1.2430    8.8790   19.9060 C   0  0  0  0  0  0  0  0  0  0  0  0
    1.5160    9.3540   18.6240 C   0  0  0  0  0  0  0  0  0  0  0  0
    2.2450    8.5610   17.7310 C   0  0  0  0  0  0  0  0  0  0  0  0
    2.7200    7.3040   18.1200 C   0  0  0  0  0  0  0  0  0  0  0  0
    2.4650    6.8550   19.4240 C   0  0  0  0  0  0  0  0  0  0  0  0
    1.7290    7.6370   20.3200 C   0  0  0  0  0  0  0  0  0  0  0  0
    1.1620   10.3300   18.2990 H   0  0  0  0  0  0  0  0  0  0  0  0
    2.4260    8.9600   16.7360 H   0  0  0  0  0  0  0  0  0  0  0  0
    2.8310    5.8870   19.7610 H   0  0  0  0  0  0  0  0  0  0  0  0
    1.5430    7.2690   21.3270 H   0  0  0  0  0  0  0  0  0  0  0  0
    3.4520    6.4420   17.2780 N   0  0  0  0  0  0  0  0  0  0  0  0
    4.8250    6.3900   17.1170 C   0  0  0  0  0  0  0  0  0  0  0  0
    5.6530    7.1020   17.6760 O   0  0  0  0  0  0  0  0  0  0  0  0
    2.9050    5.7590   16.7650 H   0  0  0  0  0  0  0  0  0  0  0  0
    5.2570    5.3420   16.1090 C   0  0  0  0  0  0  0  0  0  0  0  0
    6.2750    5.5950   15.7900 H   0  0  0  0  0  0  0  0  0  0  0  0
    4.6340    5.3740   15.2100 H   0  0  0  0  0  0  0  0  0  0  0  0
    5.2460    3.9490   16.7290 C   0  0  0  0  0  0  0  0  0  0  0  0
    5.0420    3.2130   15.9420 H   0  0  0  0  0  0  0  0  0  0  0  0
    6.2320    3.7090   17.1440 H   0  0  0  0  0  0  0  0  0  0  0  0
    4.2400    3.7470   17.7620 N   0  0  0  0  0  0  0  0  0  0  0  0
    2.9250    3.4350   17.5400 C   0  0  0  0  0  0  0  0  0  0  0  0
    2.3250    3.3270   16.4860 O   0  0  0  0  0  0  0  0  0  0  0  0
    2.3160    3.2230   18.8510 C   0  0  0  0  0  0  0  0  0  0  0  0
    1.0110    2.9310   19.1980 C   0  0  0  0  0  0  0  0  0  0  0  0
    0.7330    2.7750   20.5600 C   0  0  0  0  0  0  0  0  0  0  0  0
    1.7510    2.9100   21.5270 C   0  0  0  0  0  0  0  0  0  0  0  0
    3.0640    3.2040   21.1490 C   0  0  0  0  0  0  0  0  0  0  0  0
    3.3130    3.3580   19.7990 C   0  0  0  0  0  0  0  0  0  0  0  0
    4.5570    3.6540   19.0930 C   0  0  0  0  0  0  0  0  0  0  0  0
    5.6400    3.7500   19.6380 O   0  0  0  0  0  0  0  0  0  0  0  0
    0.2380    2.8320   18.4440 H   0  0  0  0  0  0  0  0  0  0  0  0
   -0.2820    2.5480   20.8800 H   0  0  0  0  0  0  0  0  0  0  0  0
    1.5090    2.7840   22.5810 H   0  0  0  0  0  0  0  0  0  0  0  0
    3.8600    3.3120   21.8820 H   0  0  0  0  0  0  0  0  0  0  0  0
    0.2960    9.8710   21.0400 S   0  0  0  0  0  0  0  0  0  0  0  0
    1.1700   10.8830   21.5940 O   0  0  0  0  0  0  0  0  0  0  0  0
   -0.4330    8.9630   21.9020 O   0  0  0  0  0  0  0  0  0  0  0  0
   -2.0480   13.6520   21.6710 C   0  0  0  0  0  0  0  0  0  0  0  0
   -1.8850   12.3000   21.4770 C   0  0  0  0  0  0  0  0  0  0  0  0
   -1.1610   11.9530   20.3630 C   0  0  0  0  0  0  0  0  0  0  0  0
   -0.8510   10.6140   20.0480 N   0  0  0  0  0  0  0  0  0  0  0  0
   -0.6270   12.8120   19.4900 N   0  0  0  0  0  0  0  0  0  0  0  0
   -0.8170   14.1100   19.7760 C   0  0  0  0  0  0  0  0  0  0  0  0
   -1.5180   14.5670   20.8320 N   0  0  0  0  0  0  0  0  0  0  0  0
   -2.2930   11.5630   22.1530 H   0  0  0  0  0  0  0  0  0  0  0  0
   -0.5930   10.5180   19.0680 H   0  0  0  0  0  0  0  0  0  0  0  0
   -2.8150   14.1600   22.8530 C   0  0  0  0  0  0  0  0  0  0  0  0
   -3.5890   14.8640   22.5290 H   0  0  0  0  0  0  0  0  0  0  0  0
   -3.3030   13.3350   23.3850 H   0  0  0  0  0  0  0  0  0  0  0  0
   -2.1400   14.6620   23.5550 H   0  0  0  0  0  0  0  0  0  0  0  0
   -0.2310   15.1240   18.8450 C   0  0  0  0  0  0  0  0  0  0  0  0
   -1.0190   15.7780   18.4630 H   0  0  0  0  0  0  0  0  0  0  0  0
    0.2590   14.6340   17.9960 H   0  0  0  0  0  0  0  0  0  0  0  0
    0.5160   15.7320   19.3650 H   0  0  0  0  0  0  0  0  0  0  0  0
  1  6  1  0  0  0  0
  1 36  1  0  0  0  0
  2  1  2  0  0  0  0
  3  4  2  0  0  0  0
  3  2  1  0  0  0  0
  4  5  1  0  0  0  0
  5  9  1  0  0  0  0
  5  6  2  0  0  0  0
  6 10  1  0  0  0  0
  7  2  1  0  0  0  0
  8  3  1  0  0  0  0
 11  4  1  0  0  0  0
 12 11  1  0  0  0  0
 12 13  2  0  0  0  0
 14 11  1  0  0  0  0
 15 18  1  0  0  0  0
 15 12  1  0  0  0  0
 16 15  1  0  0  0  0
 17 15  1  0  0  0  0
 18 20  1  0  0  0  0
 18 21  1  0  0  0  0
 19 18  1  0  0  0  0
 21 30  1  0  0  0  0
 22 21  1  0  0  0  0
 22 24  1  0  0  0  0
 23 22  2  0  0  0  0
 24 25  2  0  0  0  0
 24 29  1  0  0  0  0
 25 26  1  0  0  0  0
 26 33  1  0  0  0  0
 26 27  2  0  0  0  0
 27 34  1  0  0  0  0
 28 27  1  0  0  0  0
 28 35  1  0  0  0  0
 29 28  2  0  0  0  0
 30 31  2  0  0  0  0
 30 29  1  0  0  0  0
 32 25  1  0  0  0  0
 36 37  2  0  0  0  0
 36 38  2  0  0  0  0
 39 48  1  0  0  0  0
 40 39  1  0  0  0  0
 40 46  1  0  0  0  0
 41 40  2  0  0  0  0
 42 41  1  0  0  0  0
 42 36  1  0  0  0  0
 43 44  2  0  0  0  0
 43 41  1  0  0  0  0
 44 45  1  0  0  0  0
 45 39  2  0  0  0  0
 47 42  1  0  0  0  0
 48 50  1  0  0  0  0
 48 51  1  0  0  0  0
 49 48  1  0  0  0  0
 52 55  1  0  0  0  0
 52 44  1  0  0  0  0
 53 52  1  0  0  0  0
 54 52  1  0  0  0  0
M  END
>  <MODEL>
10

>  <REMARK>
 VINA RESULT:    -8.604      2.925      9.335
 INTER + INTRA:         -12.116
 INTER:                 -11.088
 INTRA:                  -1.028
 UNBOUND:                 0.009
  Name = 
  8 active torsions:
  status: ('A' for Active; 'I' for Inactive)
    1  A    between atoms: C_1  and  C_2
    2  A    between atoms: N_5  and  S_6
    3  A    between atoms: S_6  and  C_9
    4  A    between atoms: C_12  and  N_13
    5  A    between atoms: C_14  and  C_16
    6  A    between atoms: C_16  and  C_17
    7  A    between atoms: C_17  and  N_18
    8  A    between atoms: C_32  and  C_33
                            x       y       z     vdW  Elec       q    Type
                         _______ _______ _______ _____ _____    ______ ____

>  <TORSDO>
F 8

$$$$
=
 OpenBabel07192307433D

 55 58  0  0  0  0  0  0  0  0999 V2000
    2.0320    7.0960   19.7700 C   0  0  0  0  0  0  0  0  0  0  0  0
    1.5380    7.1110   21.0740 C   0  0  0  0  0  0  0  0  0  0  0  0
    0.9630    8.2790   21.5860 C   0  0  0  0  0  0  0  0  0  0  0  0
    0.8990    9.4400   20.8080 C   0  0  0  0  0  0  0  0  0  0  0  0
    1.4300    9.4190   19.5100 C   0  0  0  0  0  0  0  0  0  0  0  0
    1.9980    8.2520   18.9870 C   0  0  0  0  0  0  0  0  0  0  0  0
    1.5800    6.2220   21.7010 H   0  0  0  0  0  0  0  0  0  0  0  0
    0.5770    8.2470   22.6010 H   0  0  0  0  0  0  0  0  0  0  0  0
    1.4070   10.3080   18.8840 H   0  0  0  0  0  0  0  0  0  0  0  0
    2.4050    8.2580   17.9780 H   0  0  0  0  0  0  0  0  0  0  0  0
    0.3290   10.6530   21.2460 N   0  0  0  0  0  0  0  0  0  0  0  0
   -0.5360   10.8410   22.3100 C   0  0  0  0  0  0  0  0  0  0  0  0
   -0.9710    9.9710   23.0580 O   0  0  0  0  0  0  0  0  0  0  0  0
    0.6210   11.4840   20.7420 H   0  0  0  0  0  0  0  0  0  0  0  0
   -0.9580   12.2870   22.4730 C   0  0  0  0  0  0  0  0  0  0  0  0
   -0.3140   12.7320   23.2400 H   0  0  0  0  0  0  0  0  0  0  0  0
   -1.9840   12.3620   22.8480 H   0  0  0  0  0  0  0  0  0  0  0  0
   -0.8010   13.0540   21.1650 C   0  0  0  0  0  0  0  0  0  0  0  0
   -0.9940   14.1180   21.3520 H   0  0  0  0  0  0  0  0  0  0  0  0
    0.2300   12.9760   20.7990 H   0  0  0  0  0  0  0  0  0  0  0  0
   -1.7070   12.6450   20.1020 N   0  0  0  0  0  0  0  0  0  0  0  0
   -1.3310   12.1220   18.8940 C   0  0  0  0  0  0  0  0  0  0  0  0
   -0.2120   11.9520   18.4420 O   0  0  0  0  0  0  0  0  0  0  0  0
   -2.5580   11.7620   18.1890 C   0  0  0  0  0  0  0  0  0  0  0  0
   -2.7480   11.2390   16.9250 C   0  0  0  0  0  0  0  0  0  0  0  0
   -4.0660   10.9880   16.5290 C   0  0  0  0  0  0  0  0  0  0  0  0
   -5.1460   11.2590   17.3940 C   0  0  0  0  0  0  0  0  0  0  0  0
   -4.9270   11.7870   18.6700 C   0  0  0  0  0  0  0  0  0  0  0  0
   -3.6180   12.0300   19.0360 C   0  0  0  0  0  0  0  0  0  0  0  0
   -3.0640   12.5600   20.2800 C   0  0  0  0  0  0  0  0  0  0  0  0
   -3.7320   12.8200   21.2630 O   0  0  0  0  0  0  0  0  0  0  0  0
   -1.9080   11.0360   16.2690 H   0  0  0  0  0  0  0  0  0  0  0  0
   -4.2620   10.5790   15.5390 H   0  0  0  0  0  0  0  0  0  0  0  0
   -6.1630   11.0560   17.0630 H   0  0  0  0  0  0  0  0  0  0  0  0
   -5.7490   12.0030   19.3480 H   0  0  0  0  0  0  0  0  0  0  0  0
    2.7420    5.6070   19.1030 S   0  0  0  0  0  0  0  0  0  0  0  0
    1.7330    4.5700   19.1370 O   0  0  0  0  0  0  0  0  0  0  0  0
    4.0260    5.4170   19.7460 O   0  0  0  0  0  0  0  0  0  0  0  0
    6.6100    6.7960   17.1510 C   0  0  0  0  0  0  0  0  0  0  0  0
    5.3080    6.9740   17.5550 C   0  0  0  0  0  0  0  0  0  0  0  0
    4.4260    6.0130   17.1240 C   0  0  0  0  0  0  0  0  0  0  0  0
    3.0660    6.0120   17.4960 N   0  0  0  0  0  0  0  0  0  0  0  0
    4.7430    4.9580   16.3670 N   0  0  0  0  0  0  0  0  0  0  0  0
    6.0420    4.8550   16.0440 C   0  0  0  0  0  0  0  0  0  0  0  0
    6.9920    5.7410   16.3990 N   0  0  0  0  0  0  0  0  0  0  0  0
    4.9980    7.8070   18.1690 H   0  0  0  0  0  0  0  0  0  0  0  0
    2.5140    5.4360   16.8640 H   0  0  0  0  0  0  0  0  0  0  0  0
    7.6700    7.7740   17.5590 C   0  0  0  0  0  0  0  0  0  0  0  0
    8.0300    8.3270   16.6850 H   0  0  0  0  0  0  0  0  0  0  0  0
    7.2750    8.4960   18.2820 H   0  0  0  0  0  0  0  0  0  0  0  0
    8.5090    7.2490   18.0280 H   0  0  0  0  0  0  0  0  0  0  0  0
    6.4640    3.6870   15.2100 C   0  0  0  0  0  0  0  0  0  0  0  0
    7.5380    3.7380   15.0160 H   0  0  0  0  0  0  0  0  0  0  0  0
    5.9350    3.6840   14.2510 H   0  0  0  0  0  0  0  0  0  0  0  0
    6.2390    2.7490   15.7270 H   0  0  0  0  0  0  0  0  0  0  0  0
  1  2  1  0  0  0  0
  2  3  2  0  0  0  0
  2  7  1  0  0  0  0
  3  8  1  0  0  0  0
  4 11  1  0  0  0  0
  4  3  1  0  0  0  0
  5  4  2  0  0  0  0
  6  5  1  0  0  0  0
  6  1  2  0  0  0  0
  9  5  1  0  0  0  0
 10  6  1  0  0  0  0
 11 12  1  0  0  0  0
 12 15  1  0  0  0  0
 12 13  2  0  0  0  0
 14 11  1  0  0  0  0
 15 17  1  0  0  0  0
 15 16  1  0  0  0  0
 18 19  1  0  0  0  0
 18 15  1  0  0  0  0
 20 18  1  0  0  0  0
 21 30  1  0  0  0  0
 21 18  1  0  0  0  0
 22 21  1  0  0  0  0
 23 22  2  0  0  0  0
 24 22  1  0  0  0  0
 24 29  1  0  0  0  0
 25 24  2  0  0  0  0
 26 25  1  0  0  0  0
 26 27  2  0  0  0  0
 27 28  1  0  0  0  0
 28 29  2  0  0  0  0
 28 35  1  0  0  0  0
 29 30  1  0  0  0  0
 30 31  2  0  0  0  0
 32 25  1  0  0  0  0
 33 26  1  0  0  0  0
 34 27  1  0  0  0  0
 36 37  2  0  0  0  0
 36 38  2  0  0  0  0
 36  1  1  0  0  0  0
 39 40  1  0  0  0  0
 39 48  1  0  0  0  0
 40 46  1  0  0  0  0
 41 42  1  0  0  0  0
 41 40  2  0  0  0  0
 42 36  1  0  0  0  0
 43 41  1  0  0  0  0
 44 43  2  0  0  0  0
 44 45  1  0  0  0  0
 45 39  2  0  0  0  0
 47 42  1  0  0  0  0
 48 51  1  0  0  0  0
 48 50  1  0  0  0  0
 49 48  1  0  0  0  0
 52 55  1  0  0  0  0
 52 44  1  0  0  0  0
 53 52  1  0  0  0  0
 54 52  1  0  0  0  0
M  END
>  <MODEL>
11

>  <REMARK>
 VINA RESULT:    -8.410      1.745      2.900
 INTER + INTRA:         -11.842
 INTER:                 -11.601
 INTRA:                  -0.241
 UNBOUND:                 0.009
  Name = 
  8 active torsions:
  status: ('A' for Active; 'I' for Inactive)
    1  A    between atoms: C_1  and  C_2
    2  A    between atoms: N_5  and  S_6
    3  A    between atoms: S_6  and  C_9
    4  A    between atoms: C_12  and  N_13
    5  A    between atoms: C_14  and  C_16
    6  A    between atoms: C_16  and  C_17
    7  A    between atoms: C_17  and  N_18
    8  A    between atoms: C_32  and  C_33
                            x       y       z     vdW  Elec       q    Type
                         _______ _______ _______ _____ _____    ______ ____

>  <TORSDO>
F 8

$$$$
=
 OpenBabel07192307433D

 55 58  0  0  0  0  0  0  0  0999 V2000
    2.6250    5.2000   18.9070 C   0  0  0  0  0  0  0  0  0  0  0  0
    2.6670    6.0830   17.8280 C   0  0  0  0  0  0  0  0  0  0  0  0
    2.3640    7.4340   18.0250 C   0  0  0  0  0  0  0  0  0  0  0  0
    1.9970    7.9040   19.2910 C   0  0  0  0  0  0  0  0  0  0  0  0
    1.9280    6.9970   20.3590 C   0  0  0  0  0  0  0  0  0  0  0  0
    2.2400    5.6460   20.1720 C   0  0  0  0  0  0  0  0  0  0  0  0
    2.9440    5.7420   16.8320 H   0  0  0  0  0  0  0  0  0  0  0  0
    2.4210    8.0940   17.1630 H   0  0  0  0  0  0  0  0  0  0  0  0
    1.6360    7.3280   21.3530 H   0  0  0  0  0  0  0  0  0  0  0  0
    2.1790    4.9600   21.0140 H   0  0  0  0  0  0  0  0  0  0  0  0
    1.6860    9.2500   19.5740 N   0  0  0  0  0  0  0  0  0  0  0  0
    0.7020   10.0270   18.9890 C   0  0  0  0  0  0  0  0  0  0  0  0
   -0.0710    9.6790   18.1020 O   0  0  0  0  0  0  0  0  0  0  0  0
    2.2240    9.6780   20.3210 H   0  0  0  0  0  0  0  0  0  0  0  0
    0.6700   11.4410   19.5360 C   0  0  0  0  0  0  0  0  0  0  0  0
    1.5180   11.9810   19.0980 H   0  0  0  0  0  0  0  0  0  0  0  0
    0.8220   11.4510   20.6200 H   0  0  0  0  0  0  0  0  0  0  0  0
   -0.6310   12.1420   19.1640 C   0  0  0  0  0  0  0  0  0  0  0  0
   -0.3970   13.1430   18.7820 H   0  0  0  0  0  0  0  0  0  0  0  0
   -1.1380   11.6020   18.3560 H   0  0  0  0  0  0  0  0  0  0  0  0
   -1.5670   12.3230   20.2650 N   0  0  0  0  0  0  0  0  0  0  0  0
   -1.2310   12.6870   21.5410 C   0  0  0  0  0  0  0  0  0  0  0  0
   -0.1280   12.8690   22.0270 O   0  0  0  0  0  0  0  0  0  0  0  0
   -2.4820   12.8500   22.2760 C   0  0  0  0  0  0  0  0  0  0  0  0
   -2.7110   13.1650   23.6010 C   0  0  0  0  0  0  0  0  0  0  0  0
   -4.0440   13.2580   24.0150 C   0  0  0  0  0  0  0  0  0  0  0  0
   -5.1010   13.0410   23.1060 C   0  0  0  0  0  0  0  0  0  0  0  0
   -4.8420   12.7250   21.7680 C   0  0  0  0  0  0  0  0  0  0  0  0
   -3.5180   12.6340   21.3860 C   0  0  0  0  0  0  0  0  0  0  0  0
   -2.9260   12.3360   20.0840 C   0  0  0  0  0  0  0  0  0  0  0  0
   -3.5720   12.1770   19.0660 O   0  0  0  0  0  0  0  0  0  0  0  0
   -1.8890   13.3270   24.2900 H   0  0  0  0  0  0  0  0  0  0  0  0
   -4.2720   13.5010   25.0510 H   0  0  0  0  0  0  0  0  0  0  0  0
   -6.1300   13.1190   23.4510 H   0  0  0  0  0  0  0  0  0  0  0  0
   -5.6450   12.5540   21.0560 H   0  0  0  0  0  0  0  0  0  0  0  0
    3.0340    3.4840   18.6690 S   0  0  0  0  0  0  0  0  0  0  0  0
    2.5900    3.0930   17.3480 O   0  0  0  0  0  0  0  0  0  0  0  0
    2.5890    2.7690   19.8470 O   0  0  0  0  0  0  0  0  0  0  0  0
    6.0050    4.4340   15.4350 C   0  0  0  0  0  0  0  0  0  0  0  0
    5.3850    3.6350   16.3680 C   0  0  0  0  0  0  0  0  0  0  0  0
    5.3670    4.1360   17.6470 C   0  0  0  0  0  0  0  0  0  0  0  0
    4.7220    3.4730   18.7100 N   0  0  0  0  0  0  0  0  0  0  0  0
    5.8940    5.3040   18.0250 N   0  0  0  0  0  0  0  0  0  0  0  0
    6.4550    6.0250   17.0410 C   0  0  0  0  0  0  0  0  0  0  0  0
    6.5410    5.6300   15.7560 N   0  0  0  0  0  0  0  0  0  0  0  0
    4.9410    2.6830   16.1150 H   0  0  0  0  0  0  0  0  0  0  0  0
    5.0600    3.8090   19.6100 H   0  0  0  0  0  0  0  0  0  0  0  0
    6.0880    4.0000   14.0030 C   0  0  0  0  0  0  0  0  0  0  0  0
    6.0320    2.9090   13.9340 H   0  0  0  0  0  0  0  0  0  0  0  0
    5.2620    4.4240   13.4200 H   0  0  0  0  0  0  0  0  0  0  0  0
    7.0280    4.3450   13.5580 H   0  0  0  0  0  0  0  0  0  0  0  0
    7.0490    7.3510   17.3980 C   0  0  0  0  0  0  0  0  0  0  0  0
    6.2900    8.1330   17.3130 H   0  0  0  0  0  0  0  0  0  0  0  0
    7.8810    7.5970   16.7280 H   0  0  0  0  0  0  0  0  0  0  0  0
    7.4310    7.3340   18.4230 H   0  0  0  0  0  0  0  0  0  0  0  0
  1  6  1  0  0  0  0
  2  3  1  0  0  0  0
  2  1  2  0  0  0  0
  3  4  2  0  0  0  0
  4 11  1  0  0  0  0
  4  5  1  0  0  0  0
  5  9  1  0  0  0  0
  6  5  2  0  0  0  0
  6 10  1  0  0  0  0
  7  2  1  0  0  0  0
  8  3  1  0  0  0  0
 11 14  1  0  0  0  0
 12 15  1  0  0  0  0
 12 11  1  0  0  0  0
 13 12  2  0  0  0  0
 15 17  1  0  0  0  0
 16 15  1  0  0  0  0
 18 15  1  0  0  0  0
 18 21  1  0  0  0  0
 19 18  1  0  0  0  0
 20 18  1  0  0  0  0
 21 22  1  0  0  0  0
 22 23  2  0  0  0  0
 22 24  1  0  0  0  0
 24 25  1  0  0  0  0
 25 26  2  0  0  0  0
 25 32  1  0  0  0  0
 26 33  1  0  0  0  0
 27 34  1  0  0  0  0
 27 26  1  0  0  0  0
 28 27  2  0  0  0  0
 29 28  1  0  0  0  0
 29 24  2  0  0  0  0
 30 21  1  0  0  0  0
 30 29  1  0  0  0  0
 31 30  2  0  0  0  0
 35 28  1  0  0  0  0
 36 42  1  0  0  0  0
 36  1  1  0  0  0  0
 36 38  2  0  0  0  0
 37 36  2  0  0  0  0
 39 45  2  0  0  0  0
 39 40  1  0  0  0  0
 40 41  2  0  0  0  0
 41 43  1  0  0  0  0
 41 42  1  0  0  0  0
 42 47  1  0  0  0  0
 44 52  1  0  0  0  0
 44 43  2  0  0  0  0
 45 44  1  0  0  0  0
 46 40  1  0  0  0  0
 48 39  1  0  0  0  0
 49 48  1  0  0  0  0
 50 48  1  0  0  0  0
 51 48  1  0  0  0  0
 52 55  1  0  0  0  0
 53 52  1  0  0  0  0
 54 52  1  0  0  0  0
M  END
>  <MODEL>
12

>  <REMARK>
 VINA RESULT:    -8.388      2.011      3.227
 INTER + INTRA:         -11.811
 INTER:                 -11.671
 INTRA:                  -0.140
 UNBOUND:                 0.009
  Name = 
  8 active torsions:
  status: ('A' for Active; 'I' for Inactive)
    1  A    between atoms: C_1  and  C_2
    2  A    between atoms: N_5  and  S_6
    3  A    between atoms: S_6  and  C_9
    4  A    between atoms: C_12  and  N_13
    5  A    between atoms: C_14  and  C_16
    6  A    between atoms: C_16  and  C_17
    7  A    between atoms: C_17  and  N_18
    8  A    between atoms: C_32  and  C_33
                            x       y       z     vdW  Elec       q    Type
                         _______ _______ _______ _____ _____    ______ ____

>  <TORSDO>
F 8

$$$$
=
 OpenBabel07192307433D

 55 58  0  0  0  0  0  0  0  0999 V2000
    1.5560    9.2830   19.2370 C   0  0  0  0  0  0  0  0  0  0  0  0
    2.2920    8.5330   18.3200 C   0  0  0  0  0  0  0  0  0  0  0  0
    2.6570    7.2200   18.6310 C   0  0  0  0  0  0  0  0  0  0  0  0
    2.3090    6.6580   19.8640 C   0  0  0  0  0  0  0  0  0  0  0  0
    1.5980    7.4360   20.7890 C   0  0  0  0  0  0  0  0  0  0  0  0
    1.2200    8.7470   20.4820 C   0  0  0  0  0  0  0  0  0  0  0  0
    2.5790    8.9490   17.3560 H   0  0  0  0  0  0  0  0  0  0  0  0
    3.2170    6.6620   17.8850 H   0  0  0  0  0  0  0  0  0  0  0  0
    1.3220    7.0320   21.7620 H   0  0  0  0  0  0  0  0  0  0  0  0
    0.6700    9.3340   21.2150 H   0  0  0  0  0  0  0  0  0  0  0  0
    2.6300    5.3400   20.2500 N   0  0  0  0  0  0  0  0  0  0  0  0
    2.0830    4.1650   19.7650 C   0  0  0  0  0  0  0  0  0  0  0  0
    1.2050    4.0650   18.9150 O   0  0  0  0  0  0  0  0  0  0  0  0
    3.3750    5.2500   20.9330 H   0  0  0  0  0  0  0  0  0  0  0  0
    2.6640    2.9310   20.4290 C   0  0  0  0  0  0  0  0  0  0  0  0
    2.1130    2.0640   20.0470 H   0  0  0  0  0  0  0  0  0  0  0  0
    2.5010    2.9490   21.5110 H   0  0  0  0  0  0  0  0  0  0  0  0
    4.1450    2.7810   20.1050 C   0  0  0  0  0  0  0  0  0  0  0  0
    4.7330    3.2510   20.9040 H   0  0  0  0  0  0  0  0  0  0  0  0
    4.4250    1.7210   20.0840 H   0  0  0  0  0  0  0  0  0  0  0  0
    4.5660    3.4020   18.8570 N   0  0  0  0  0  0  0  0  0  0  0  0
    5.4110    4.4730   18.7480 C   0  0  0  0  0  0  0  0  0  0  0  0
    5.9210    5.1470   19.6270 O   0  0  0  0  0  0  0  0  0  0  0  0
    5.6350    4.6900   17.3210 C   0  0  0  0  0  0  0  0  0  0  0  0
    6.3670    5.6600   16.6640 C   0  0  0  0  0  0  0  0  0  0  0  0
    6.3990    5.5980   15.2670 C   0  0  0  0  0  0  0  0  0  0  0  0
    5.7120    4.5820   14.5710 C   0  0  0  0  0  0  0  0  0  0  0  0
    4.9790    3.6100   15.2600 C   0  0  0  0  0  0  0  0  0  0  0  0
    4.9590    3.6960   16.6390 C   0  0  0  0  0  0  0  0  0  0  0  0
    4.3060    2.8450   17.6310 C   0  0  0  0  0  0  0  0  0  0  0  0
    3.6950    1.8300   17.3580 O   0  0  0  0  0  0  0  0  0  0  0  0
    6.8900    6.4360   17.2110 H   0  0  0  0  0  0  0  0  0  0  0  0
    6.9610    6.3440   14.7070 H   0  0  0  0  0  0  0  0  0  0  0  0
    5.7510    4.5550   13.4840 H   0  0  0  0  0  0  0  0  0  0  0  0
    4.4420    2.8220   14.7390 H   0  0  0  0  0  0  0  0  0  0  0  0
    1.0670   10.9470   18.8390 S   0  0  0  0  0  0  0  0  0  0  0  0
   -0.3330   10.9320   18.4740 O   0  0  0  0  0  0  0  0  0  0  0  0
    2.0660   11.4850   17.9380 O   0  0  0  0  0  0  0  0  0  0  0  0
   -1.5710   14.0370   20.7570 C   0  0  0  0  0  0  0  0  0  0  0  0
   -0.4090   13.5590   20.1990 C   0  0  0  0  0  0  0  0  0  0  0  0
    0.0970   12.4250   20.7860 C   0  0  0  0  0  0  0  0  0  0  0  0
    1.2490   11.7710   20.3020 N   0  0  0  0  0  0  0  0  0  0  0  0
   -0.4490   11.7840   21.8240 N   0  0  0  0  0  0  0  0  0  0  0  0
   -1.5950   12.3110   22.2830 C   0  0  0  0  0  0  0  0  0  0  0  0
   -2.1760   13.4230   21.7950 N   0  0  0  0  0  0  0  0  0  0  0  0
    0.0730   14.0360   19.3580 H   0  0  0  0  0  0  0  0  0  0  0  0
    1.6470   11.1580   21.0110 H   0  0  0  0  0  0  0  0  0  0  0  0
   -2.2250   15.2670   20.2030 C   0  0  0  0  0  0  0  0  0  0  0  0
   -1.8260   16.1610   20.6930 H   0  0  0  0  0  0  0  0  0  0  0  0
   -2.0420   15.3550   19.1270 H   0  0  0  0  0  0  0  0  0  0  0  0
   -3.3090   15.2210   20.3590 H   0  0  0  0  0  0  0  0  0  0  0  0
   -2.2640   11.6300   23.4350 C   0  0  0  0  0  0  0  0  0  0  0  0
   -3.2050   12.1350   23.6700 H   0  0  0  0  0  0  0  0  0  0  0  0
   -1.6240   11.6520   24.3250 H   0  0  0  0  0  0  0  0  0  0  0  0
   -2.4730   10.5840   23.1900 H   0  0  0  0  0  0  0  0  0  0  0  0
  1  6  1  0  0  0  0
  2  3  1  0  0  0  0
  2  1  2  0  0  0  0
  3  4  2  0  0  0  0
  4 11  1  0  0  0  0
  4  5  1  0  0  0  0
  5  9  1  0  0  0  0
  6  5  2  0  0  0  0
  6 10  1  0  0  0  0
  7  2  1  0  0  0  0
  8  3  1  0  0  0  0
 11 14  1  0  0  0  0
 12 11  1  0  0  0  0
 12 15  1  0  0  0  0
 13 12  2  0  0  0  0
 15 17  1  0  0  0  0
 16 15  1  0  0  0  0
 18 15  1  0  0  0  0
 18 19  1  0  0  0  0
 20 18  1  0  0  0  0
 21 18  1  0  0  0  0
 22 21  1  0  0  0  0
 22 23  2  0  0  0  0
 24 22  1  0  0  0  0
 25 32  1  0  0  0  0
 25 24  1  0  0  0  0
 26 25  2  0  0  0  0
 27 28  2  0  0  0  0
 27 26  1  0  0  0  0
 28 29  1  0  0  0  0
 29 24  2  0  0  0  0
 29 30  1  0  0  0  0
 30 21  1  0  0  0  0
 31 30  2  0  0  0  0
 33 26  1  0  0  0  0
 34 27  1  0  0  0  0
 35 28  1  0  0  0  0
 36  1  1  0  0  0  0
 36 42  1  0  0  0  0
 37 36  2  0  0  0  0
 38 36  2  0  0  0  0
 39 45  2  0  0  0  0
 40 39  1  0  0  0  0
 40 41  2  0  0  0  0
 41 43  1  0  0  0  0
 42 41  1  0  0  0  0
 42 47  1  0  0  0  0
 43 44  2  0  0  0  0
 44 52  1  0  0  0  0
 45 44  1  0  0  0  0
 46 40  1  0  0  0  0
 48 51  1  0  0  0  0
 48 49  1  0  0  0  0
 48 39  1  0  0  0  0
 50 48  1  0  0  0  0
 52 53  1  0  0  0  0
 52 54  1  0  0  0  0
 55 52  1  0  0  0  0
M  END
>  <MODEL>
13

>  <REMARK>
 VINA RESULT:    -8.250      3.085      9.439
 INTER + INTRA:         -11.617
 INTER:                 -10.651
 INTRA:                  -0.966
 UNBOUND:                 0.009
  Name = 
  8 active torsions:
  status: ('A' for Active; 'I' for Inactive)
    1  A    between atoms: C_1  and  C_2
    2  A    between atoms: N_5  and  S_6
    3  A    between atoms: S_6  and  C_9
    4  A    between atoms: C_12  and  N_13
    5  A    between atoms: C_14  and  C_16
    6  A    between atoms: C_16  and  C_17
    7  A    between atoms: C_17  and  N_18
    8  A    between atoms: C_32  and  C_33
                            x       y       z     vdW  Elec       q    Type
                         _______ _______ _______ _____ _____    ______ ____

>  <TORSDO>
F 8

$$$$
=
 OpenBabel07192307433D

 55 58  0  0  0  0  0  0  0  0999 V2000
    1.5850    9.3700   19.2710 C   0  0  0  0  0  0  0  0  0  0  0  0
    2.3210    8.6270   18.3480 C   0  0  0  0  0  0  0  0  0  0  0  0
    2.6510    7.2980   18.6320 C   0  0  0  0  0  0  0  0  0  0  0  0
    2.2700    6.7140   19.8450 C   0  0  0  0  0  0  0  0  0  0  0  0
    1.5590    7.4840   20.7770 C   0  0  0  0  0  0  0  0  0  0  0  0
    1.2160    8.8110   20.4960 C   0  0  0  0  0  0  0  0  0  0  0  0
    2.6340    9.0600   17.3990 H   0  0  0  0  0  0  0  0  0  0  0  0
    3.2130    6.7470   17.8820 H   0  0  0  0  0  0  0  0  0  0  0  0
    1.2580    7.0630   21.7340 H   0  0  0  0  0  0  0  0  0  0  0  0
    0.6650    9.3910   21.2330 H   0  0  0  0  0  0  0  0  0  0  0  0
    2.5550    5.3800   20.2030 N   0  0  0  0  0  0  0  0  0  0  0  0
    2.0330    4.2280   19.6430 C   0  0  0  0  0  0  0  0  0  0  0  0
    1.2100    4.1670   18.7350 O   0  0  0  0  0  0  0  0  0  0  0  0
    3.2540    5.2590   20.9290 H   0  0  0  0  0  0  0  0  0  0  0  0
    2.5600    2.9670   20.2990 C   0  0  0  0  0  0  0  0  0  0  0  0
    2.0800    2.1150   19.8020 H   0  0  0  0  0  0  0  0  0  0  0  0
    2.2690    2.9150   21.3520 H   0  0  0  0  0  0  0  0  0  0  0  0
    4.0730    2.8620   20.1460 C   0  0  0  0  0  0  0  0  0  0  0  0
    4.5510    3.4510   20.9390 H   0  0  0  0  0  0  0  0  0  0  0  0
    4.3990    1.8240   20.2800 H   0  0  0  0  0  0  0  0  0  0  0  0
    4.5970    3.3590   18.8820 N   0  0  0  0  0  0  0  0  0  0  0  0
    4.2660    2.8820   17.6420 C   0  0  0  0  0  0  0  0  0  0  0  0
    3.5460    1.9450   17.3430 O   0  0  0  0  0  0  0  0  0  0  0  0
    4.9410    3.7350   16.6680 C   0  0  0  0  0  0  0  0  0  0  0  0
    4.9790    3.6670   15.2890 C   0  0  0  0  0  0  0  0  0  0  0  0
    5.7180    4.6500   14.6220 C   0  0  0  0  0  0  0  0  0  0  0  0
    6.3880    5.6640   15.3380 C   0  0  0  0  0  0  0  0  0  0  0  0
    6.3320    5.7110   16.7350 C   0  0  0  0  0  0  0  0  0  0  0  0
    5.6000    4.7270   17.3700 C   0  0  0  0  0  0  0  0  0  0  0  0
    5.3440    4.5060   18.7920 C   0  0  0  0  0  0  0  0  0  0  0  0
    5.7170    5.2560   19.6730 O   0  0  0  0  0  0  0  0  0  0  0  0
    4.4610    2.8820   14.7510 H   0  0  0  0  0  0  0  0  0  0  0  0
    5.7780    4.6340   13.5350 H   0  0  0  0  0  0  0  0  0  0  0  0
    6.9570    6.4170   14.7970 H   0  0  0  0  0  0  0  0  0  0  0  0
    6.8440    6.4840   17.3020 H   0  0  0  0  0  0  0  0  0  0  0  0
    1.1390   11.0540   18.9060 S   0  0  0  0  0  0  0  0  0  0  0  0
   -0.2480   11.0750   18.4920 O   0  0  0  0  0  0  0  0  0  0  0  0
    2.1780   11.6000   18.0570 O   0  0  0  0  0  0  0  0  0  0  0  0
   -1.5840   14.0310   20.8830 C   0  0  0  0  0  0  0  0  0  0  0  0
   -0.4040   13.5910   20.3280 C   0  0  0  0  0  0  0  0  0  0  0  0
    0.1120   12.4470   20.8850 C   0  0  0  0  0  0  0  0  0  0  0  0
    1.2830   11.8300   20.3980 N   0  0  0  0  0  0  0  0  0  0  0  0
   -0.4380   11.7620   21.8920 N   0  0  0  0  0  0  0  0  0  0  0  0
   -1.6010   12.2530   22.3500 C   0  0  0  0  0  0  0  0  0  0  0  0
   -2.1940   13.3710   21.8900 N   0  0  0  0  0  0  0  0  0  0  0  0
    0.0810   14.1050   19.5120 H   0  0  0  0  0  0  0  0  0  0  0  0
    1.6810   11.2000   21.0920 H   0  0  0  0  0  0  0  0  0  0  0  0
   -2.2520   15.2670   20.3600 C   0  0  0  0  0  0  0  0  0  0  0  0
   -3.2990   15.0580   20.1200 H   0  0  0  0  0  0  0  0  0  0  0  0
   -2.2240   16.0690   21.1060 H   0  0  0  0  0  0  0  0  0  0  0  0
   -1.7370   15.6230   19.4610 H   0  0  0  0  0  0  0  0  0  0  0  0
   -2.2760   11.5220   23.4680 C   0  0  0  0  0  0  0  0  0  0  0  0
   -2.0230   10.4600   23.4220 H   0  0  0  0  0  0  0  0  0  0  0  0
   -3.3640   11.6270   23.3980 H   0  0  0  0  0  0  0  0  0  0  0  0
   -1.9550   11.9240   24.4340 H   0  0  0  0  0  0  0  0  0  0  0  0
  1  6  1  0  0  0  0
  2  3  1  0  0  0  0
  2  1  2  0  0  0  0
  3  4  2  0  0  0  0
  4 11  1  0  0  0  0
  4  5  1  0  0  0  0
  5  9  1  0  0  0  0
  6  5  2  0  0  0  0
  6 10  1  0  0  0  0
  7  2  1  0  0  0  0
  8  3  1  0  0  0  0
 11 14  1  0  0  0  0
 12 11  1  0  0  0  0
 12 15  1  0  0  0  0
 13 12  2  0  0  0  0
 15 17  1  0  0  0  0
 16 15  1  0  0  0  0
 18 20  1  0  0  0  0
 18 15  1  0  0  0  0
 18 19  1  0  0  0  0
 21 18  1  0  0  0  0
 22 21  1  0  0  0  0
 23 22  2  0  0  0  0
 24 29  1  0  0  0  0
 24 22  1  0  0  0  0
 25 24  2  0  0  0  0
 26 25  1  0  0  0  0
 26 27  2  0  0  0  0
 27 28  1  0  0  0  0
 28 35  1  0  0  0  0
 28 29  2  0  0  0  0
 29 30  1  0  0  0  0
 30 21  1  0  0  0  0
 30 31  2  0  0  0  0
 32 25  1  0  0  0  0
 33 26  1  0  0  0  0
 34 27  1  0  0  0  0
 36  1  1  0  0  0  0
 36 42  1  0  0  0  0
 37 36  2  0  0  0  0
 38 36  2  0  0  0  0
 39 45  2  0  0  0  0
 40 39  1  0  0  0  0
 40 41  2  0  0  0  0
 41 43  1  0  0  0  0
 42 41  1  0  0  0  0
 42 47  1  0  0  0  0
 43 44  2  0  0  0  0
 44 52  1  0  0  0  0
 45 44  1  0  0  0  0
 46 40  1  0  0  0  0
 48 39  1  0  0  0  0
 48 50  1  0  0  0  0
 49 48  1  0  0  0  0
 51 48  1  0  0  0  0
 52 55  1  0  0  0  0
 53 52  1  0  0  0  0
 54 52  1  0  0  0  0
M  END
>  <MODEL>
14

>  <REMARK>
 VINA RESULT:    -8.240      3.112      9.484
 INTER + INTRA:         -11.603
 INTER:                 -10.652
 INTRA:                  -0.951
 UNBOUND:                 0.009
  Name = 
  8 active torsions:
  status: ('A' for Active; 'I' for Inactive)
    1  A    between atoms: C_1  and  C_2
    2  A    between atoms: N_5  and  S_6
    3  A    between atoms: S_6  and  C_9
    4  A    between atoms: C_12  and  N_13
    5  A    between atoms: C_14  and  C_16
    6  A    between atoms: C_16  and  C_17
    7  A    between atoms: C_17  and  N_18
    8  A    between atoms: C_32  and  C_33
                            x       y       z     vdW  Elec       q    Type
                         _______ _______ _______ _____ _____    ______ ____

>  <TORSDO>
F 8

$$$$
=
 OpenBabel07192307433D

 55 58  0  0  0  0  0  0  0  0999 V2000
    3.7720    6.5810   17.9710 C   0  0  0  0  0  0  0  0  0  0  0  0
    3.3860    6.2200   19.2620 C   0  0  0  0  0  0  0  0  0  0  0  0
    2.4470    6.9980   19.9470 C   0  0  0  0  0  0  0  0  0  0  0  0
    1.9090    8.1470   19.3580 C   0  0  0  0  0  0  0  0  0  0  0  0
    2.3330    8.5140   18.0730 C   0  0  0  0  0  0  0  0  0  0  0  0
    3.2630    7.7370   17.3760 C   0  0  0  0  0  0  0  0  0  0  0  0
    3.7930    5.3330   19.7440 H   0  0  0  0  0  0  0  0  0  0  0  0
    2.1600    6.6770   20.9450 H   0  0  0  0  0  0  0  0  0  0  0  0
    1.9420    9.4090   17.5920 H   0  0  0  0  0  0  0  0  0  0  0  0
    3.5790    8.0400   16.3810 H   0  0  0  0  0  0  0  0  0  0  0  0
    0.9530    8.9780   19.9780 N   0  0  0  0  0  0  0  0  0  0  0  0
    0.8860    9.3330   21.3140 C   0  0  0  0  0  0  0  0  0  0  0  0
    1.6500    8.9710   22.2040 O   0  0  0  0  0  0  0  0  0  0  0  0
    0.2610    9.3900   19.3610 H   0  0  0  0  0  0  0  0  0  0  0  0
   -0.2940   10.2330   21.6230 C   0  0  0  0  0  0  0  0  0  0  0  0
   -0.2260   10.5110   22.6810 H   0  0  0  0  0  0  0  0  0  0  0  0
   -1.2420    9.7000   21.5030 H   0  0  0  0  0  0  0  0  0  0  0  0
   -0.2650   11.4890   20.7600 C   0  0  0  0  0  0  0  0  0  0  0  0
   -0.3880   12.3670   21.4070 H   0  0  0  0  0  0  0  0  0  0  0  0
    0.7090   11.5900   20.2670 H   0  0  0  0  0  0  0  0  0  0  0  0
   -1.3120   11.5640   19.7510 N   0  0  0  0  0  0  0  0  0  0  0  0
   -1.2460   11.0210   18.4960 C   0  0  0  0  0  0  0  0  0  0  0  0
   -0.3210   10.4410   17.9540 O   0  0  0  0  0  0  0  0  0  0  0  0
   -2.5460   11.2460   17.8700 C   0  0  0  0  0  0  0  0  0  0  0  0
   -2.9970   10.9380   16.6020 C   0  0  0  0  0  0  0  0  0  0  0  0
   -4.3190   11.2770   16.2950 C   0  0  0  0  0  0  0  0  0  0  0  0
   -5.1470   11.9040   17.2500 C   0  0  0  0  0  0  0  0  0  0  0  0
   -4.6660   12.2030   18.5280 C   0  0  0  0  0  0  0  0  0  0  0  0
   -3.3560   11.8620   18.8060 C   0  0  0  0  0  0  0  0  0  0  0  0
   -2.5720   12.0290   20.0270 C   0  0  0  0  0  0  0  0  0  0  0  0
   -3.0230   12.4680   21.0680 O   0  0  0  0  0  0  0  0  0  0  0  0
   -2.3500   10.4570   15.8760 H   0  0  0  0  0  0  0  0  0  0  0  0
   -4.7160   11.0570   15.3050 H   0  0  0  0  0  0  0  0  0  0  0  0
   -6.1720   12.1590   16.9870 H   0  0  0  0  0  0  0  0  0  0  0  0
   -5.2900   12.6870   19.2750 H   0  0  0  0  0  0  0  0  0  0  0  0
    4.9480    5.5830   17.0820 S   0  0  0  0  0  0  0  0  0  0  0  0
    6.0740    5.3250   17.9550 O   0  0  0  0  0  0  0  0  0  0  0  0
    5.1370    6.1950   15.7830 O   0  0  0  0  0  0  0  0  0  0  0  0
    4.0750    2.1920   19.8980 C   0  0  0  0  0  0  0  0  0  0  0  0
    4.6160    2.7790   18.7780 C   0  0  0  0  0  0  0  0  0  0  0  0
    3.7180    3.4340   17.9710 C   0  0  0  0  0  0  0  0  0  0  0  0
    4.1140    4.1390   16.8150 N   0  0  0  0  0  0  0  0  0  0  0  0
    2.4050    3.5330   18.1970 N   0  0  0  0  0  0  0  0  0  0  0  0
    1.9740    2.9510   19.3280 C   0  0  0  0  0  0  0  0  0  0  0  0
    2.7590    2.2720   20.1870 N   0  0  0  0  0  0  0  0  0  0  0  0
    5.6700    2.7320   18.5490 H   0  0  0  0  0  0  0  0  0  0  0  0
    3.3240    4.2920   16.1910 H   0  0  0  0  0  0  0  0  0  0  0  0
    4.9510    1.4500   20.8620 C   0  0  0  0  0  0  0  0  0  0  0  0
    5.9840    1.4400   20.5020 H   0  0  0  0  0  0  0  0  0  0  0  0
    4.9350    1.9260   21.8480 H   0  0  0  0  0  0  0  0  0  0  0  0
    4.5960    0.4200   20.9780 H   0  0  0  0  0  0  0  0  0  0  0  0
    0.5150    3.0390   19.6460 C   0  0  0  0  0  0  0  0  0  0  0  0
   -0.0220    3.4880   18.8070 H   0  0  0  0  0  0  0  0  0  0  0  0
    0.3490    3.6560   20.5370 H   0  0  0  0  0  0  0  0  0  0  0  0
    0.1060    2.0430   19.8390 H   0  0  0  0  0  0  0  0  0  0  0  0
  1  2  1  0  0  0  0
  2  7  1  0  0  0  0
  2  3  2  0  0  0  0
  3  8  1  0  0  0  0
  4  3  1  0  0  0  0
  4 11  1  0  0  0  0
  5  4  2  0  0  0  0
  6  1  2  0  0  0  0
  6  5  1  0  0  0  0
  9  5  1  0  0  0  0
 10  6  1  0  0  0  0
 11 12  1  0  0  0  0
 12 15  1  0  0  0  0
 12 13  2  0  0  0  0
 14 11  1  0  0  0  0
 15 16  1  0  0  0  0
 17 15  1  0  0  0  0
 18 19  1  0  0  0  0
 18 15  1  0  0  0  0
 20 18  1  0  0  0  0
 21 30  1  0  0  0  0
 21 18  1  0  0  0  0
 22 21  1  0  0  0  0
 23 22  2  0  0  0  0
 24 22  1  0  0  0  0
 24 29  1  0  0  0  0
 25 24  2  0  0  0  0
 26 25  1  0  0  0  0
 26 27  2  0  0  0  0
 27 28  1  0  0  0  0
 28 29  2  0  0  0  0
 28 35  1  0  0  0  0
 29 30  1  0  0  0  0
 30 31  2  0  0  0  0
 32 25  1  0  0  0  0
 33 26  1  0  0  0  0
 34 27  1  0  0  0  0
 36 37  2  0  0  0  0
 36  1  1  0  0  0  0
 38 36  2  0  0  0  0
 39 45  2  0  0  0  0
 39 48  1  0  0  0  0
 40 39  1  0  0  0  0
 41 43  1  0  0  0  0
 41 40  2  0  0  0  0
 42 36  1  0  0  0  0
 42 41  1  0  0  0  0
 43 44  2  0  0  0  0
 44 52  1  0  0  0  0
 44 45  1  0  0  0  0
 46 40  1  0  0  0  0
 47 42  1  0  0  0  0
 48 51  1  0  0  0  0
 48 50  1  0  0  0  0
 49 48  1  0  0  0  0
 52 55  1  0  0  0  0
 52 54  1  0  0  0  0
 53 52  1  0  0  0  0
M  END
>  <MODEL>
15

>  <REMARK>
 VINA RESULT:    -8.137      2.247      3.632
 INTER + INTRA:         -11.458
 INTER:                 -11.306
 INTRA:                  -0.152
 UNBOUND:                 0.009
  Name = 
  8 active torsions:
  status: ('A' for Active; 'I' for Inactive)
    1  A    between atoms: C_1  and  C_2
    2  A    between atoms: N_5  and  S_6
    3  A    between atoms: S_6  and  C_9
    4  A    between atoms: C_12  and  N_13
    5  A    between atoms: C_14  and  C_16
    6  A    between atoms: C_16  and  C_17
    7  A    between atoms: C_17  and  N_18
    8  A    between atoms: C_32  and  C_33
                            x       y       z     vdW  Elec       q    Type
                         _______ _______ _______ _____ _____    ______ ____

>  <TORSDO>
F 8

$$$$
=
 OpenBabel07192307433D

 55 58  0  0  0  0  0  0  0  0999 V2000
    1.1570    9.5790   19.6300 C   0  0  0  0  0  0  0  0  0  0  0  0
    1.6570    9.2910   18.3600 C   0  0  0  0  0  0  0  0  0  0  0  0
    2.1570    8.0150   18.0840 C   0  0  0  0  0  0  0  0  0  0  0  0
    2.1810    7.0300   19.0780 C   0  0  0  0  0  0  0  0  0  0  0  0
    1.7060    7.3450   20.3590 C   0  0  0  0  0  0  0  0  0  0  0  0
    1.1940    8.6160   20.6410 C   0  0  0  0  0  0  0  0  0  0  0  0
    1.6530   10.0410   17.5710 H   0  0  0  0  0  0  0  0  0  0  0  0
    2.5250    7.8240   17.0790 H   0  0  0  0  0  0  0  0  0  0  0  0
    1.7210    6.6060   21.1570 H   0  0  0  0  0  0  0  0  0  0  0  0
    0.8310    8.8400   21.6410 H   0  0  0  0  0  0  0  0  0  0  0  0
    2.6600    5.7190   18.8790 N   0  0  0  0  0  0  0  0  0  0  0  0
    2.0920    4.7250   18.1010 C   0  0  0  0  0  0  0  0  0  0  0  0
    1.0540    4.8100   17.4530 O   0  0  0  0  0  0  0  0  0  0  0  0
    3.5430    5.4990   19.3280 H   0  0  0  0  0  0  0  0  0  0  0  0
    2.8800    3.4300   18.1380 C   0  0  0  0  0  0  0  0  0  0  0  0
    2.1800    2.6150   17.9210 H   0  0  0  0  0  0  0  0  0  0  0  0
    3.2810    3.2370   19.1380 H   0  0  0  0  0  0  0  0  0  0  0  0
    3.9950    3.4380   17.0990 C   0  0  0  0  0  0  0  0  0  0  0  0
    4.4530    2.4420   17.0620 H   0  0  0  0  0  0  0  0  0  0  0  0
    3.5850    3.6380   16.1020 H   0  0  0  0  0  0  0  0  0  0  0  0
    5.0700    4.3840   17.3610 N   0  0  0  0  0  0  0  0  0  0  0  0
    5.3700    5.4780   16.5940 C   0  0  0  0  0  0  0  0  0  0  0  0
    4.8710    5.8460   15.5450 O   0  0  0  0  0  0  0  0  0  0  0  0
    6.4430    6.1920   17.2810 C   0  0  0  0  0  0  0  0  0  0  0  0
    7.1400    7.3290   16.9200 C   0  0  0  0  0  0  0  0  0  0  0  0
    8.1230    7.7840   17.8060 C   0  0  0  0  0  0  0  0  0  0  0  0
    8.3790    7.1040   19.0140 C   0  0  0  0  0  0  0  0  0  0  0  0
    7.6580    5.9550   19.3570 C   0  0  0  0  0  0  0  0  0  0  0  0
    6.6970    5.5240   18.4640 C   0  0  0  0  0  0  0  0  0  0  0  0
    5.7840    4.3850   18.5320 C   0  0  0  0  0  0  0  0  0  0  0  0
    5.6980    3.6410   19.4900 O   0  0  0  0  0  0  0  0  0  0  0  0
    6.9340    7.8420   15.9870 H   0  0  0  0  0  0  0  0  0  0  0  0
    8.6990    8.6750   17.5600 H   0  0  0  0  0  0  0  0  0  0  0  0
    9.1490    7.4770   19.6870 H   0  0  0  0  0  0  0  0  0  0  0  0
    7.8450    5.4190   20.2840 H   0  0  0  0  0  0  0  0  0  0  0  0
    0.4950   11.1940   19.9820 S   0  0  0  0  0  0  0  0  0  0  0  0
    0.0420   11.7780   18.7370 O   0  0  0  0  0  0  0  0  0  0  0  0
    1.4580   11.8800   20.8190 O   0  0  0  0  0  0  0  0  0  0  0  0
   -1.6710   13.8450   22.8910 C   0  0  0  0  0  0  0  0  0  0  0  0
   -0.9350   12.7480   22.5090 C   0  0  0  0  0  0  0  0  0  0  0  0
   -1.4920   11.9900   21.5080 C   0  0  0  0  0  0  0  0  0  0  0  0
   -0.8420   10.8660   20.9580 N   0  0  0  0  0  0  0  0  0  0  0  0
   -2.6590   12.2410   20.9080 N   0  0  0  0  0  0  0  0  0  0  0  0
   -3.2930   13.3470   21.3310 C   0  0  0  0  0  0  0  0  0  0  0  0
   -2.8490   14.1580   22.3100 N   0  0  0  0  0  0  0  0  0  0  0  0
    0.0160   12.5000   22.9590 H   0  0  0  0  0  0  0  0  0  0  0  0
   -1.5020   10.2630   20.4710 H   0  0  0  0  0  0  0  0  0  0  0  0
   -1.1690   14.7540   23.9710 C   0  0  0  0  0  0  0  0  0  0  0  0
   -0.1030   14.5780   24.1490 H   0  0  0  0  0  0  0  0  0  0  0  0
   -1.3000   15.8040   23.6870 H   0  0  0  0  0  0  0  0  0  0  0  0
   -1.7260   14.5830   24.8990 H   0  0  0  0  0  0  0  0  0  0  0  0
   -4.5990   13.6930   20.6870 C   0  0  0  0  0  0  0  0  0  0  0  0
   -4.9840   12.8280   20.1400 H   0  0  0  0  0  0  0  0  0  0  0  0
   -4.4760   14.5240   19.9830 H   0  0  0  0  0  0  0  0  0  0  0  0
   -5.3300   13.9910   21.4440 H   0  0  0  0  0  0  0  0  0  0  0  0
  1 36  1  0  0  0  0
  1  6  1  0  0  0  0
  2  1  2  0  0  0  0
  3  2  1  0  0  0  0
  3  4  2  0  0  0  0
  4  5  1  0  0  0  0
  5  6  2  0  0  0  0
  5  9  1  0  0  0  0
  6 10  1  0  0  0  0
  7  2  1  0  0  0  0
  8  3  1  0  0  0  0
 11  4  1  0  0  0  0
 11 14  1  0  0  0  0
 12 15  1  0  0  0  0
 12 11  1  0  0  0  0
 13 12  2  0  0  0  0
 15 17  1  0  0  0  0
 16 15  1  0  0  0  0
 18 21  1  0  0  0  0
 18 15  1  0  0  0  0
 19 18  1  0  0  0  0
 20 18  1  0  0  0  0
 21 30  1  0  0  0  0
 22 24  1  0  0  0  0
 22 21  1  0  0  0  0
 23 22  2  0  0  0  0
 24 29  1  0  0  0  0
 25 24  2  0  0  0  0
 25 26  1  0  0  0  0
 26 27  2  0  0  0  0
 27 28  1  0  0  0  0
 27 34  1  0  0  0  0
 28 35  1  0  0  0  0
 29 30  1  0  0  0  0
 29 28  2  0  0  0  0
 30 31  2  0  0  0  0
 32 25  1  0  0  0  0
 33 26  1  0  0  0  0
 36 38  2  0  0  0  0
 36 42  1  0  0  0  0
 37 36  2  0  0  0  0
 39 48  1  0  0  0  0
 40 39  1  0  0  0  0
 40 46  1  0  0  0  0
 41 40  2  0  0  0  0
 42 41  1  0  0  0  0
 43 44  2  0  0  0  0
 43 41  1  0  0  0  0
 44 45  1  0  0  0  0
 45 39  2  0  0  0  0
 47 42  1  0  0  0  0
 48 49  1  0  0  0  0
 48 51  1  0  0  0  0
 50 48  1  0  0  0  0
 52 44  1  0  0  0  0
 52 55  1  0  0  0  0
 53 52  1  0  0  0  0
 54 52  1  0  0  0  0
M  END
>  <MODEL>
16

>  <REMARK>
 VINA RESULT:    -8.126      3.043     10.005
 INTER + INTRA:         -11.443
 INTER:                 -10.822
 INTRA:                  -0.621
 UNBOUND:                 0.009
  Name = 
  8 active torsions:
  status: ('A' for Active; 'I' for Inactive)
    1  A    between atoms: C_1  and  C_2
    2  A    between atoms: N_5  and  S_6
    3  A    between atoms: S_6  and  C_9
    4  A    between atoms: C_12  and  N_13
    5  A    between atoms: C_14  and  C_16
    6  A    between atoms: C_16  and  C_17
    7  A    between atoms: C_17  and  N_18
    8  A    between atoms: C_32  and  C_33
                            x       y       z     vdW  Elec       q    Type
                         _______ _______ _______ _____ _____    ______ ____

>  <TORSDO>
F 8

$$$$
=
 OpenBabel07192307433D

 55 58  0  0  0  0  0  0  0  0999 V2000
    1.0700    9.1380   19.6220 C   0  0  0  0  0  0  0  0  0  0  0  0
    1.4290    9.6130   18.3600 C   0  0  0  0  0  0  0  0  0  0  0  0
    2.2410    8.8320   17.5310 C   0  0  0  0  0  0  0  0  0  0  0  0
    2.7140    7.5890   17.9650 C   0  0  0  0  0  0  0  0  0  0  0  0
    2.3710    7.1410   19.2490 C   0  0  0  0  0  0  0  0  0  0  0  0
    1.5520    7.9110   20.0810 C   0  0  0  0  0  0  0  0  0  0  0  0
    1.0780   10.5780   18.0020 H   0  0  0  0  0  0  0  0  0  0  0  0
    2.4870    9.2290   16.5500 H   0  0  0  0  0  0  0  0  0  0  0  0
    2.7330    6.1840   19.6200 H   0  0  0  0  0  0  0  0  0  0  0  0
    1.2990    7.5450   21.0730 H   0  0  0  0  0  0  0  0  0  0  0  0
    3.5280    6.7390   17.1870 N   0  0  0  0  0  0  0  0  0  0  0  0
    4.9100    6.7060   17.1440 C   0  0  0  0  0  0  0  0  0  0  0  0
    5.6770    7.4290   17.7730 O   0  0  0  0  0  0  0  0  0  0  0  0
    3.0360    6.0500   16.6280 H   0  0  0  0  0  0  0  0  0  0  0  0
    5.4410    5.6680   16.1760 C   0  0  0  0  0  0  0  0  0  0  0  0
    6.4610    5.9650   15.9040 H   0  0  0  0  0  0  0  0  0  0  0  0
    4.8640    5.6580   15.2460 H   0  0  0  0  0  0  0  0  0  0  0  0
    5.4640    4.2840   16.8150 C   0  0  0  0  0  0  0  0  0  0  0  0
    5.3550    3.5280   16.0280 H   0  0  0  0  0  0  0  0  0  0  0  0
    6.4320    4.1040   17.2990 H   0  0  0  0  0  0  0  0  0  0  0  0
    4.4040    4.0380   17.7820 N   0  0  0  0  0  0  0  0  0  0  0  0
    3.1720    3.5150   17.4940 C   0  0  0  0  0  0  0  0  0  0  0  0
    2.6940    3.2160   16.4130 O   0  0  0  0  0  0  0  0  0  0  0  0
    2.4770    3.3470   18.7670 C   0  0  0  0  0  0  0  0  0  0  0  0
    1.1990    2.9010   19.0410 C   0  0  0  0  0  0  0  0  0  0  0  0
    0.8180    2.8410   20.3860 C   0  0  0  0  0  0  0  0  0  0  0  0
    1.7110    3.2190   21.4090 C   0  0  0  0  0  0  0  0  0  0  0  0
    3.0010    3.6660   21.1050 C   0  0  0  0  0  0  0  0  0  0  0  0
    3.3520    3.7200   19.7710 C   0  0  0  0  0  0  0  0  0  0  0  0
    4.6040    4.1260   19.1360 C   0  0  0  0  0  0  0  0  0  0  0  0
    5.6070    4.4340   19.7500 O   0  0  0  0  0  0  0  0  0  0  0  0
    0.5210    2.6140   18.2440 H   0  0  0  0  0  0  0  0  0  0  0  0
   -0.1820    2.4990   20.6480 H   0  0  0  0  0  0  0  0  0  0  0  0
    1.3920    3.1650   22.4480 H   0  0  0  0  0  0  0  0  0  0  0  0
    3.7010    3.9630   21.8820 H   0  0  0  0  0  0  0  0  0  0  0  0
    0.0170   10.1150   20.6740 S   0  0  0  0  0  0  0  0  0  0  0  0
   -0.3780    9.2990   21.8020 O   0  0  0  0  0  0  0  0  0  0  0  0
   -0.9750   10.7430   19.8250 O   0  0  0  0  0  0  0  0  0  0  0  0
   -0.0580   14.5170   19.7790 C   0  0  0  0  0  0  0  0  0  0  0  0
    0.4840   13.2530   19.7920 C   0  0  0  0  0  0  0  0  0  0  0  0
    0.5610   12.6630   21.0290 C   0  0  0  0  0  0  0  0  0  0  0  0
    1.0360   11.3480   21.2130 N   0  0  0  0  0  0  0  0  0  0  0  0
    0.1580   13.2180   22.1760 N   0  0  0  0  0  0  0  0  0  0  0  0
   -0.3810   14.4430   22.0600 C   0  0  0  0  0  0  0  0  0  0  0  0
   -0.4970   15.1220   20.9030 N   0  0  0  0  0  0  0  0  0  0  0  0
    0.8240   12.7570   18.8940 H   0  0  0  0  0  0  0  0  0  0  0  0
    1.3090   11.1890   22.1810 H   0  0  0  0  0  0  0  0  0  0  0  0
   -0.2000   15.2670   18.4890 C   0  0  0  0  0  0  0  0  0  0  0  0
   -1.2470   15.2750   18.1690 H   0  0  0  0  0  0  0  0  0  0  0  0
    0.1310   16.3050   18.6030 H   0  0  0  0  0  0  0  0  0  0  0  0
    0.4130   14.7990   17.7110 H   0  0  0  0  0  0  0  0  0  0  0  0
   -0.8670   15.1130   23.3060 C   0  0  0  0  0  0  0  0  0  0  0  0
   -1.8720   15.5110   23.1460 H   0  0  0  0  0  0  0  0  0  0  0  0
   -0.2040   15.9390   23.5870 H   0  0  0  0  0  0  0  0  0  0  0  0
   -0.8940   14.4000   24.1360 H   0  0  0  0  0  0  0  0  0  0  0  0
  1  6  1  0  0  0  0
  1 36  1  0  0  0  0
  2  1  2  0  0  0  0
  3  4  2  0  0  0  0
  3  2  1  0  0  0  0
  4  5  1  0  0  0  0
  5  9  1  0  0  0  0
  5  6  2  0  0  0  0
  6 10  1  0  0  0  0
  7  2  1  0  0  0  0
  8  3  1  0  0  0  0
 11  4  1  0  0  0  0
 12 11  1  0  0  0  0
 12 13  2  0  0  0  0
 14 11  1  0  0  0  0
 15 18  1  0  0  0  0
 15 12  1  0  0  0  0
 16 15  1  0  0  0  0
 17 15  1  0  0  0  0
 18 20  1  0  0  0  0
 18 21  1  0  0  0  0
 19 18  1  0  0  0  0
 21 30  1  0  0  0  0
 22 21  1  0  0  0  0
 22 24  1  0  0  0  0
 23 22  2  0  0  0  0
 24 25  2  0  0  0  0
 24 29  1  0  0  0  0
 25 26  1  0  0  0  0
 26 33  1  0  0  0  0
 26 27  2  0  0  0  0
 27 34  1  0  0  0  0
 28 27  1  0  0  0  0
 28 35  1  0  0  0  0
 29 28  2  0  0  0  0
 30 31  2  0  0  0  0
 30 29  1  0  0  0  0
 32 25  1  0  0  0  0
 36 42  1  0  0  0  0
 36 37  2  0  0  0  0
 38 36  2  0  0  0  0
 39 40  1  0  0  0  0
 39 45  2  0  0  0  0
 40 41  2  0  0  0  0
 41 42  1  0  0  0  0
 41 43  1  0  0  0  0
 42 47  1  0  0  0  0
 44 43  2  0  0  0  0
 44 52  1  0  0  0  0
 45 44  1  0  0  0  0
 46 40  1  0  0  0  0
 48 50  1  0  0  0  0
 48 39  1  0  0  0  0
 49 48  1  0  0  0  0
 51 48  1  0  0  0  0
 52 54  1  0  0  0  0
 52 55  1  0  0  0  0
 53 52  1  0  0  0  0
M  END
>  <MODEL>
17

>  <REMARK>
 VINA RESULT:    -7.934      3.061      9.194
 INTER + INTRA:         -11.172
 INTER:                 -10.408
 INTRA:                  -0.764
 UNBOUND:                 0.009
  Name = 
  8 active torsions:
  status: ('A' for Active; 'I' for Inactive)
    1  A    between atoms: C_1  and  C_2
    2  A    between atoms: N_5  and  S_6
    3  A    between atoms: S_6  and  C_9
    4  A    between atoms: C_12  and  N_13
    5  A    between atoms: C_14  and  C_16
    6  A    between atoms: C_16  and  C_17
    7  A    between atoms: C_17  and  N_18
    8  A    between atoms: C_32  and  C_33
                            x       y       z     vdW  Elec       q    Type
                         _______ _______ _______ _____ _____    ______ ____

>  <TORSDO>
F 8

$$$$
=
 OpenBabel07192307433D

 55 58  0  0  0  0  0  0  0  0999 V2000
   -0.5200   10.3610   18.6320 C   0  0  0  0  0  0  0  0  0  0  0  0
    0.3790    9.8610   17.6890 C   0  0  0  0  0  0  0  0  0  0  0  0
    1.3310    8.9120   18.0740 C   0  0  0  0  0  0  0  0  0  0  0  0
    1.4060    8.4750   19.4010 C   0  0  0  0  0  0  0  0  0  0  0  0
    0.5170    9.0120   20.3440 C   0  0  0  0  0  0  0  0  0  0  0  0
   -0.4450    9.9540   19.9660 C   0  0  0  0  0  0  0  0  0  0  0  0
    0.3450   10.1880   16.6520 H   0  0  0  0  0  0  0  0  0  0  0  0
    2.0040    8.5350   17.3080 H   0  0  0  0  0  0  0  0  0  0  0  0
    0.5560    8.7020   21.3860 H   0  0  0  0  0  0  0  0  0  0  0  0
   -1.1240   10.3590   20.7130 H   0  0  0  0  0  0  0  0  0  0  0  0
    2.3290    7.5160   19.8660 N   0  0  0  0  0  0  0  0  0  0  0  0
    2.3370    6.1580   19.6010 C   0  0  0  0  0  0  0  0  0  0  0  0
    1.5240    5.5440   18.9170 O   0  0  0  0  0  0  0  0  0  0  0  0
    3.0940    7.8780   20.4270 H   0  0  0  0  0  0  0  0  0  0  0  0
    3.4780    5.4340   20.2890 C   0  0  0  0  0  0  0  0  0  0  0  0
    3.1500    5.2020   21.3090 H   0  0  0  0  0  0  0  0  0  0  0  0
    4.3570    6.0780   20.3850 H   0  0  0  0  0  0  0  0  0  0  0  0
    3.8270    4.1430   19.5570 C   0  0  0  0  0  0  0  0  0  0  0  0
    4.4820    3.5390   20.1970 H   0  0  0  0  0  0  0  0  0  0  0  0
    2.9220    3.5510   19.3760 H   0  0  0  0  0  0  0  0  0  0  0  0
    4.5280    4.3250   18.2940 N   0  0  0  0  0  0  0  0  0  0  0  0
    5.8130    4.7780   18.1570 C   0  0  0  0  0  0  0  0  0  0  0  0
    6.5890    5.1680   19.0120 O   0  0  0  0  0  0  0  0  0  0  0  0
    6.1370    4.7030   16.7350 C   0  0  0  0  0  0  0  0  0  0  0  0
    7.2790    5.0750   16.0530 C   0  0  0  0  0  0  0  0  0  0  0  0
    7.2920    4.8680   14.6700 C   0  0  0  0  0  0  0  0  0  0  0  0
    6.1820    4.3000   14.0120 C   0  0  0  0  0  0  0  0  0  0  0  0
    5.0380    3.9300   14.7260 C   0  0  0  0  0  0  0  0  0  0  0  0
    5.0470    4.1490   16.0890 C   0  0  0  0  0  0  0  0  0  0  0  0
    4.0300    3.8690   17.1010 C   0  0  0  0  0  0  0  0  0  0  0  0
    2.9800    3.3020   16.8680 O   0  0  0  0  0  0  0  0  0  0  0  0
    8.1250    5.5130   16.5710 H   0  0  0  0  0  0  0  0  0  0  0  0
    8.1710    5.1500   14.0910 H   0  0  0  0  0  0  0  0  0  0  0  0
    6.2160    4.1490   12.9340 H   0  0  0  0  0  0  0  0  0  0  0  0
    4.1730    3.4920   14.2330 H   0  0  0  0  0  0  0  0  0  0  0  0
   -1.7500   11.5510   18.1460 S   0  0  0  0  0  0  0  0  0  0  0  0
   -2.6930   11.6980   19.2350 O   0  0  0  0  0  0  0  0  0  0  0  0
   -2.1990   11.1880   16.8170 O   0  0  0  0  0  0  0  0  0  0  0  0
   -0.5850   14.5950   21.2380 C   0  0  0  0  0  0  0  0  0  0  0  0
   -1.2080   14.1490   20.0960 C   0  0  0  0  0  0  0  0  0  0  0  0
   -0.3840   13.5470   19.1770 C   0  0  0  0  0  0  0  0  0  0  0  0
   -0.8690   12.9820   17.9800 N   0  0  0  0  0  0  0  0  0  0  0  0
    0.9340   13.3750   19.3180 N   0  0  0  0  0  0  0  0  0  0  0  0
    1.4480   13.8200   20.4760 C   0  0  0  0  0  0  0  0  0  0  0  0
    0.7400   14.4350   21.4430 N   0  0  0  0  0  0  0  0  0  0  0  0
   -2.2700   14.2600   19.9320 H   0  0  0  0  0  0  0  0  0  0  0  0
   -0.1200   12.8640   17.3010 H   0  0  0  0  0  0  0  0  0  0  0  0
   -1.3760   15.2660   22.3190 C   0  0  0  0  0  0  0  0  0  0  0  0
   -1.4360   16.3430   22.1310 H   0  0  0  0  0  0  0  0  0  0  0  0
   -2.3950   14.8680   22.3600 H   0  0  0  0  0  0  0  0  0  0  0  0
   -0.9060   15.0940   23.2940 H   0  0  0  0  0  0  0  0  0  0  0  0
    2.9160   13.6430   20.7020 C   0  0  0  0  0  0  0  0  0  0  0  0
    3.0910   12.7770   21.3460 H   0  0  0  0  0  0  0  0  0  0  0  0
    3.3450   14.5290   21.1830 H   0  0  0  0  0  0  0  0  0  0  0  0
    3.4330   13.4880   19.7490 H   0  0  0  0  0  0  0  0  0  0  0  0
  1  6  1  0  0  0  0
  2  3  1  0  0  0  0
  2  1  2  0  0  0  0
  3  4  2  0  0  0  0
  4 11  1  0  0  0  0
  4  5  1  0  0  0  0
  5  9  1  0  0  0  0
  6  5  2  0  0  0  0
  6 10  1  0  0  0  0
  7  2  1  0  0  0  0
  8  3  1  0  0  0  0
 11 14  1  0  0  0  0
 12 11  1  0  0  0  0
 12 15  1  0  0  0  0
 13 12  2  0  0  0  0
 15 17  1  0  0  0  0
 15 16  1  0  0  0  0
 18 19  1  0  0  0  0
 18 15  1  0  0  0  0
 20 18  1  0  0  0  0
 21 18  1  0  0  0  0
 22 21  1  0  0  0  0
 22 23  2  0  0  0  0
 24 22  1  0  0  0  0
 25 32  1  0  0  0  0
 25 24  2  0  0  0  0
 26 25  1  0  0  0  0
 27 26  2  0  0  0  0
 27 28  1  0  0  0  0
 28 29  2  0  0  0  0
 29 24  1  0  0  0  0
 29 30  1  0  0  0  0
 30 21  1  0  0  0  0
 31 30  2  0  0  0  0
 33 26  1  0  0  0  0
 34 27  1  0  0  0  0
 35 28  1  0  0  0  0
 36  1  1  0  0  0  0
 36 37  2  0  0  0  0
 38 36  2  0  0  0  0
 39 45  2  0  0  0  0
 39 48  1  0  0  0  0
 40 39  1  0  0  0  0
 41 43  1  0  0  0  0
 41 40  2  0  0  0  0
 42 36  1  0  0  0  0
 42 41  1  0  0  0  0
 43 44  2  0  0  0  0
 44 52  1  0  0  0  0
 44 45  1  0  0  0  0
 46 40  1  0  0  0  0
 47 42  1  0  0  0  0
 48 50  1  0  0  0  0
 48 51  1  0  0  0  0
 49 48  1  0  0  0  0
 52 54  1  0  0  0  0
 52 53  1  0  0  0  0
 55 52  1  0  0  0  0
M  END
>  <MODEL>
18

>  <REMARK>
 VINA RESULT:    -7.922      2.809      9.533
 INTER + INTRA:         -11.155
 INTER:                 -10.277
 INTRA:                  -0.879
 UNBOUND:                 0.009
  Name = 
  8 active torsions:
  status: ('A' for Active; 'I' for Inactive)
    1  A    between atoms: C_1  and  C_2
    2  A    between atoms: N_5  and  S_6
    3  A    between atoms: S_6  and  C_9
    4  A    between atoms: C_12  and  N_13
    5  A    between atoms: C_14  and  C_16
    6  A    between atoms: C_16  and  C_17
    7  A    between atoms: C_17  and  N_18
    8  A    between atoms: C_32  and  C_33
                            x       y       z     vdW  Elec       q    Type
                         _______ _______ _______ _____ _____    ______ ____

>  <TORSDO>
F 8

$$$$
=
 OpenBabel07192307433D

 55 58  0  0  0  0  0  0  0  0999 V2000
    1.3750    7.9880   20.6960 C   0  0  0  0  0  0  0  0  0  0  0  0
    1.9330    8.2660   19.4480 C   0  0  0  0  0  0  0  0  0  0  0  0
    2.2860    7.2140   18.5970 C   0  0  0  0  0  0  0  0  0  0  0  0
    2.1060    5.8850   18.9950 C   0  0  0  0  0  0  0  0  0  0  0  0
    1.5740    5.6220   20.2660 C   0  0  0  0  0  0  0  0  0  0  0  0
    1.2090    6.6680   21.1190 C   0  0  0  0  0  0  0  0  0  0  0  0
    2.0880    9.2910   19.1160 H   0  0  0  0  0  0  0  0  0  0  0  0
    2.7050    7.4690   17.6270 H   0  0  0  0  0  0  0  0  0  0  0  0
    1.4320    4.6000   20.6100 H   0  0  0  0  0  0  0  0  0  0  0  0
    0.7990    6.4420   22.1010 H   0  0  0  0  0  0  0  0  0  0  0  0
    2.4270    4.7690   18.1930 N   0  0  0  0  0  0  0  0  0  0  0  0
    1.7600    3.5590   18.1300 C   0  0  0  0  0  0  0  0  0  0  0  0
    0.7690    3.2370   18.7780 O   0  0  0  0  0  0  0  0  0  0  0  0
    3.2150    4.8910   17.5660 H   0  0  0  0  0  0  0  0  0  0  0  0
    2.4060    2.5850   17.1640 C   0  0  0  0  0  0  0  0  0  0  0  0
    2.5200    3.1030   16.2040 H   0  0  0  0  0  0  0  0  0  0  0  0
    1.7580    1.7230   16.9760 H   0  0  0  0  0  0  0  0  0  0  0  0
    3.7720    2.1370   17.6690 C   0  0  0  0  0  0  0  0  0  0  0  0
    3.6640    1.7530   18.6910 H   0  0  0  0  0  0  0  0  0  0  0  0
    4.1530    1.3110   17.0570 H   0  0  0  0  0  0  0  0  0  0  0  0
    4.7800    3.1850   17.7210 N   0  0  0  0  0  0  0  0  0  0  0  0
    5.2640    3.8760   16.6420 C   0  0  0  0  0  0  0  0  0  0  0  0
    5.0170    3.7290   15.4580 O   0  0  0  0  0  0  0  0  0  0  0  0
    6.1710    4.8940   17.1660 C   0  0  0  0  0  0  0  0  0  0  0  0
    6.9520    5.8240   16.5090 C   0  0  0  0  0  0  0  0  0  0  0  0
    7.7220    6.6840   17.2990 C   0  0  0  0  0  0  0  0  0  0  0  0
    7.6900    6.5970   18.7070 C   0  0  0  0  0  0  0  0  0  0  0  0
    6.8900    5.6470   19.3480 C   0  0  0  0  0  0  0  0  0  0  0  0
    6.1430    4.8070   18.5460 C   0  0  0  0  0  0  0  0  0  0  0  0
    5.2160    3.7340   18.9000 C   0  0  0  0  0  0  0  0  0  0  0  0
    4.9050    3.4570   20.0430 O   0  0  0  0  0  0  0  0  0  0  0  0
    6.9690    5.8800   15.4260 H   0  0  0  0  0  0  0  0  0  0  0  0
    8.3560    7.4310   16.8240 H   0  0  0  0  0  0  0  0  0  0  0  0
    8.2990    7.2770   19.3000 H   0  0  0  0  0  0  0  0  0  0  0  0
    6.8550    5.5650   20.4310 H   0  0  0  0  0  0  0  0  0  0  0  0
    0.9000    9.3210   21.7750 S   0  0  0  0  0  0  0  0  0  0  0  0
    1.8950    9.4340   22.8190 O   0  0  0  0  0  0  0  0  0  0  0  0
   -0.5000    9.1360   22.0970 O   0  0  0  0  0  0  0  0  0  0  0  0
   -1.9110   10.7310   18.5650 C   0  0  0  0  0  0  0  0  0  0  0  0
   -0.7100   10.2890   19.0690 C   0  0  0  0  0  0  0  0  0  0  0  0
   -0.2040   11.0310   20.1090 C   0  0  0  0  0  0  0  0  0  0  0  0
    0.9870   10.6820   20.7780 N   0  0  0  0  0  0  0  0  0  0  0  0
   -0.7840   12.1110   20.6390 N   0  0  0  0  0  0  0  0  0  0  0  0
   -1.9650   12.4510   20.0980 C   0  0  0  0  0  0  0  0  0  0  0  0
   -2.5500   11.8060   19.0700 N   0  0  0  0  0  0  0  0  0  0  0  0
   -0.2000    9.4200   18.6790 H   0  0  0  0  0  0  0  0  0  0  0  0
    1.3650   11.4770   21.2900 H   0  0  0  0  0  0  0  0  0  0  0  0
   -2.5690   10.0040   17.4310 C   0  0  0  0  0  0  0  0  0  0  0  0
   -2.5840    8.9280   17.6290 H   0  0  0  0  0  0  0  0  0  0  0  0
   -3.6020   10.3440   17.2980 H   0  0  0  0  0  0  0  0  0  0  0  0
   -2.0280   10.1930   16.4970 H   0  0  0  0  0  0  0  0  0  0  0  0
   -2.6730   13.6440   20.6590 C   0  0  0  0  0  0  0  0  0  0  0  0
   -2.2410   13.9100   21.6270 H   0  0  0  0  0  0  0  0  0  0  0  0
   -3.7390   13.4330   20.7970 H   0  0  0  0  0  0  0  0  0  0  0  0
   -2.5780   14.4970   19.9800 H   0  0  0  0  0  0  0  0  0  0  0  0
  1  6  1  0  0  0  0
  1 36  1  0  0  0  0
  2  1  2  0  0  0  0
  3  4  2  0  0  0  0
  3  2  1  0  0  0  0
  4  5  1  0  0  0  0
  5  9  1  0  0  0  0
  5  6  2  0  0  0  0
  6 10  1  0  0  0  0
  7  2  1  0  0  0  0
  8  3  1  0  0  0  0
 11  4  1  0  0  0  0
 12 11  1  0  0  0  0
 12 13  2  0  0  0  0
 14 11  1  0  0  0  0
 15 18  1  0  0  0  0
 15 12  1  0  0  0  0
 16 15  1  0  0  0  0
 17 15  1  0  0  0  0
 18 21  1  0  0  0  0
 18 19  1  0  0  0  0
 20 18  1  0  0  0  0
 21 30  1  0  0  0  0
 22 24  1  0  0  0  0
 22 21  1  0  0  0  0
 23 22  2  0  0  0  0
 24 29  1  0  0  0  0
 25 24  2  0  0  0  0
 25 26  1  0  0  0  0
 26 27  2  0  0  0  0
 27 34  1  0  0  0  0
 27 28  1  0  0  0  0
 28 35  1  0  0  0  0
 29 30  1  0  0  0  0
 29 28  2  0  0  0  0
 30 31  2  0  0  0  0
 32 25  1  0  0  0  0
 33 26  1  0  0  0  0
 36 38  2  0  0  0  0
 36 37  2  0  0  0  0
 39 40  1  0  0  0  0
 39 45  2  0  0  0  0
 40 41  2  0  0  0  0
 41 43  1  0  0  0  0
 41 42  1  0  0  0  0
 42 47  1  0  0  0  0
 42 36  1  0  0  0  0
 44 43  2  0  0  0  0
 44 52  1  0  0  0  0
 45 44  1  0  0  0  0
 46 40  1  0  0  0  0
 48 49  1  0  0  0  0
 48 39  1  0  0  0  0
 50 48  1  0  0  0  0
 51 48  1  0  0  0  0
 52 54  1  0  0  0  0
 52 53  1  0  0  0  0
 55 52  1  0  0  0  0
M  END
>  <MODEL>
19

>  <REMARK>
 VINA RESULT:    -7.796      2.279      9.183
 INTER + INTRA:         -10.977
 INTER:                 -10.943
 INTRA:                  -0.034
 UNBOUND:                 0.009
  Name = 
  8 active torsions:
  status: ('A' for Active; 'I' for Inactive)
    1  A    between atoms: C_1  and  C_2
    2  A    between atoms: N_5  and  S_6
    3  A    between atoms: S_6  and  C_9
    4  A    between atoms: C_12  and  N_13
    5  A    between atoms: C_14  and  C_16
    6  A    between atoms: C_16  and  C_17
    7  A    between atoms: C_17  and  N_18
    8  A    between atoms: C_32  and  C_33
                            x       y       z     vdW  Elec       q    Type
                         _______ _______ _______ _____ _____    ______ ____

>  <TORSDO>
F 8

$$$$
=
 OpenBabel07192307433D

 55 58  0  0  0  0  0  0  0  0999 V2000
    1.3630    7.9130   20.6100 C   0  0  0  0  0  0  0  0  0  0  0  0
    1.9740    8.3080   19.4200 C   0  0  0  0  0  0  0  0  0  0  0  0
    2.7270    7.3850   18.6870 C   0  0  0  0  0  0  0  0  0  0  0  0
    2.8920    6.0740   19.1490 C   0  0  0  0  0  0  0  0  0  0  0  0
    2.2990    5.7020   20.3650 C   0  0  0  0  0  0  0  0  0  0  0  0
    1.5360    6.6160   21.0980 C   0  0  0  0  0  0  0  0  0  0  0  0
    1.8650    9.3220   19.0410 H   0  0  0  0  0  0  0  0  0  0  0  0
    3.1760    7.7250   17.7580 H   0  0  0  0  0  0  0  0  0  0  0  0
    2.4170    4.6950   20.7570 H   0  0  0  0  0  0  0  0  0  0  0  0
    1.0850    6.3080   22.0390 H   0  0  0  0  0  0  0  0  0  0  0  0
    3.6260    5.0830   18.4670 N   0  0  0  0  0  0  0  0  0  0  0  0
    3.1450    4.1500   17.5650 C   0  0  0  0  0  0  0  0  0  0  0  0
    1.9790    4.0140   17.2090 O   0  0  0  0  0  0  0  0  0  0  0  0
    4.6280    5.0860   18.6310 H   0  0  0  0  0  0  0  0  0  0  0  0
    4.2290    3.2280   17.0420 C   0  0  0  0  0  0  0  0  0  0  0  0
    3.7330    2.4190   16.4920 H   0  0  0  0  0  0  0  0  0  0  0  0
    4.7780    2.7540   17.8610 H   0  0  0  0  0  0  0  0  0  0  0  0
    5.1790    3.9730   16.1110 C   0  0  0  0  0  0  0  0  0  0  0  0
    5.9480    3.2760   15.7570 H   0  0  0  0  0  0  0  0  0  0  0  0
    4.6410    4.3310   15.2250 H   0  0  0  0  0  0  0  0  0  0  0  0
    5.8790    5.0950   16.7190 N   0  0  0  0  0  0  0  0  0  0  0  0
    6.9210    4.9960   17.6020 C   0  0  0  0  0  0  0  0  0  0  0  0
    7.4230    4.0020   18.0950 O   0  0  0  0  0  0  0  0  0  0  0  0
    7.3780    6.3580   17.8680 C   0  0  0  0  0  0  0  0  0  0  0  0
    8.3660    6.8240   18.7130 C   0  0  0  0  0  0  0  0  0  0  0  0
    8.5790    8.2070   18.7440 C   0  0  0  0  0  0  0  0  0  0  0  0
    7.8130    9.0760   17.9390 C   0  0  0  0  0  0  0  0  0  0  0  0
    6.8190    8.5780   17.0910 C   0  0  0  0  0  0  0  0  0  0  0  0
    6.6250    7.2100   17.0820 C   0  0  0  0  0  0  0  0  0  0  0  0
    5.6890    6.3910   16.3140 C   0  0  0  0  0  0  0  0  0  0  0  0
    4.9390    6.8330   15.4650 O   0  0  0  0  0  0  0  0  0  0  0  0
    8.9470    6.1450   19.3270 H   0  0  0  0  0  0  0  0  0  0  0  0
    9.3450    8.6190   19.3980 H   0  0  0  0  0  0  0  0  0  0  0  0
    7.9960   10.1480   17.9820 H   0  0  0  0  0  0  0  0  0  0  0  0
    6.2190    9.2340   16.4660 H   0  0  0  0  0  0  0  0  0  0  0  0
    0.3830    9.0750   21.5350 S   0  0  0  0  0  0  0  0  0  0  0  0
    1.0150    9.2770   22.8220 O   0  0  0  0  0  0  0  0  0  0  0  0
   -0.9970    8.6440   21.4430 O   0  0  0  0  0  0  0  0  0  0  0  0
   -2.2270   10.6100   18.2160 C   0  0  0  0  0  0  0  0  0  0  0  0
   -1.0540   10.1680   18.7800 C   0  0  0  0  0  0  0  0  0  0  0  0
   -0.6470   10.8560   19.8970 C   0  0  0  0  0  0  0  0  0  0  0  0
    0.5020   10.4960   20.6320 N   0  0  0  0  0  0  0  0  0  0  0  0
   -1.2940   11.8880   20.4470 N   0  0  0  0  0  0  0  0  0  0  0  0
   -2.4420   12.2310   19.8410 C   0  0  0  0  0  0  0  0  0  0  0  0
   -2.9330   11.6370   18.7360 N   0  0  0  0  0  0  0  0  0  0  0  0
   -0.4920    9.3370   18.3790 H   0  0  0  0  0  0  0  0  0  0  0  0
    0.8190   11.2670   21.2170 H   0  0  0  0  0  0  0  0  0  0  0  0
   -2.7790    9.9400   16.9950 C   0  0  0  0  0  0  0  0  0  0  0  0
   -2.7740    8.8530   17.1250 H   0  0  0  0  0  0  0  0  0  0  0  0
   -3.8110   10.2580   16.8090 H   0  0  0  0  0  0  0  0  0  0  0  0
   -2.1810   10.2020   16.1160 H   0  0  0  0  0  0  0  0  0  0  0  0
   -3.2230   13.3690   20.4180 C   0  0  0  0  0  0  0  0  0  0  0  0
   -4.2370   13.3690   20.0080 H   0  0  0  0  0  0  0  0  0  0  0  0
   -2.7490   14.3270   20.1770 H   0  0  0  0  0  0  0  0  0  0  0  0
   -3.2790   13.2800   21.5070 H   0  0  0  0  0  0  0  0  0  0  0  0
  1  6  1  0  0  0  0
  1 36  1  0  0  0  0
  2  1  2  0  0  0  0
  3  4  2  0  0  0  0
  3  2  1  0  0  0  0
  4  5  1  0  0  0  0
  5  9  1  0  0  0  0
  5  6  2  0  0  0  0
  6 10  1  0  0  0  0
  7  2  1  0  0  0  0
  8  3  1  0  0  0  0
 11 14  1  0  0  0  0
 11  4  1  0  0  0  0
 12 11  1  0  0  0  0
 13 12  2  0  0  0  0
 15 12  1  0  0  0  0
 15 17  1  0  0  0  0
 16 15  1  0  0  0  0
 18 21  1  0  0  0  0
 18 15  1  0  0  0  0
 19 18  1  0  0  0  0
 20 18  1  0  0  0  0
 21 22  1  0  0  0  0
 22 24  1  0  0  0  0
 22 23  2  0  0  0  0
 24 25  1  0  0  0  0
 25 26  2  0  0  0  0
 25 32  1  0  0  0  0
 26 33  1  0  0  0  0
 27 34  1  0  0  0  0
 27 26  1  0  0  0  0
 28 27  2  0  0  0  0
 29 28  1  0  0  0  0
 29 24  2  0  0  0  0
 30 21  1  0  0  0  0
 30 29  1  0  0  0  0
 31 30  2  0  0  0  0
 35 28  1  0  0  0  0
 36 37  2  0  0  0  0
 38 36  2  0  0  0  0
 39 45  2  0  0  0  0
 39 40  1  0  0  0  0
 40 41  2  0  0  0  0
 41 43  1  0  0  0  0
 41 42  1  0  0  0  0
 42 47  1  0  0  0  0
 42 36  1  0  0  0  0
 44 52  1  0  0  0  0
 44 43  2  0  0  0  0
 45 44  1  0  0  0  0
 46 40  1  0  0  0  0
 48 49  1  0  0  0  0
 48 39  1  0  0  0  0
 50 48  1  0  0  0  0
 51 48  1  0  0  0  0
 52 55  1  0  0  0  0
 53 52  1  0  0  0  0
 54 52  1  0  0  0  0
M  END
>  <MODEL>
20

>  <REMARK>
 VINA RESULT:    -7.774      2.142      9.138
 INTER + INTRA:         -10.946
 INTER:                 -10.252
 INTRA:                  -0.693
 UNBOUND:                 0.009
  Name = 
  8 active torsions:
  status: ('A' for Active; 'I' for Inactive)
    1  A    between atoms: C_1  and  C_2
    2  A    between atoms: N_5  and  S_6
    3  A    between atoms: S_6  and  C_9
    4  A    between atoms: C_12  and  N_13
    5  A    between atoms: C_14  and  C_16
    6  A    between atoms: C_16  and  C_17
    7  A    between atoms: C_17  and  N_18
    8  A    between atoms: C_32  and  C_33
                            x       y       z     vdW  Elec       q    Type
                         _______ _______ _______ _____ _____    ______ ____

>  <TORSDO>
F 8

$$$$
=
 OpenBabel07192307433D

 55 58  0  0  0  0  0  0  0  0999 V2000
   -0.8280   11.3810   22.5300 C   0  0  0  0  0  0  0  0  0  0  0  0
    0.2590   11.6050   21.6850 C   0  0  0  0  0  0  0  0  0  0  0  0
    1.0580   10.5300   21.2820 C   0  0  0  0  0  0  0  0  0  0  0  0
    0.7890    9.2340   21.7370 C   0  0  0  0  0  0  0  0  0  0  0  0
   -0.2870    9.0300   22.6130 C   0  0  0  0  0  0  0  0  0  0  0  0
   -1.0970   10.0980   23.0130 C   0  0  0  0  0  0  0  0  0  0  0  0
    0.4920   12.6040   21.3210 H   0  0  0  0  0  0  0  0  0  0  0  0
    1.8870   10.7420   20.6110 H   0  0  0  0  0  0  0  0  0  0  0  0
   -0.5150    8.0370   22.9940 H   0  0  0  0  0  0  0  0  0  0  0  0
   -1.9260    9.9190   23.6940 H   0  0  0  0  0  0  0  0  0  0  0  0
    1.5390    8.0970   21.3710 N   0  0  0  0  0  0  0  0  0  0  0  0
    1.8820    7.6910   20.0930 C   0  0  0  0  0  0  0  0  0  0  0  0
    1.5770    8.2490   19.0440 O   0  0  0  0  0  0  0  0  0  0  0  0
    1.8990    7.5410   22.1390 H   0  0  0  0  0  0  0  0  0  0  0  0
    2.6840    6.4050   20.0830 C   0  0  0  0  0  0  0  0  0  0  0  0
    2.4730    5.8800   21.0220 H   0  0  0  0  0  0  0  0  0  0  0  0
    3.7590    6.6070   20.0750 H   0  0  0  0  0  0  0  0  0  0  0  0
    2.2890    5.5220   18.9040 C   0  0  0  0  0  0  0  0  0  0  0  0
    1.9500    4.5510   19.2860 H   0  0  0  0  0  0  0  0  0  0  0  0
    1.4440    5.9650   18.3630 H   0  0  0  0  0  0  0  0  0  0  0  0
    3.3600    5.2490   17.9570 N   0  0  0  0  0  0  0  0  0  0  0  0
    3.7190    4.0090   17.5000 C   0  0  0  0  0  0  0  0  0  0  0  0
    3.2860    2.9150   17.8160 O   0  0  0  0  0  0  0  0  0  0  0  0
    4.7600    4.2150   16.4970 C   0  0  0  0  0  0  0  0  0  0  0  0
    5.4920    3.3030   15.7620 C   0  0  0  0  0  0  0  0  0  0  0  0
    6.4280    3.8160   14.8580 C   0  0  0  0  0  0  0  0  0  0  0  0
    6.6050    5.2070   14.7100 C   0  0  0  0  0  0  0  0  0  0  0  0
    5.8500    6.1100   15.4650 C   0  0  0  0  0  0  0  0  0  0  0  0
    4.9360    5.5790   16.3540 C   0  0  0  0  0  0  0  0  0  0  0  0
    4.0050    6.2410   17.2650 C   0  0  0  0  0  0  0  0  0  0  0  0
    3.8530    7.4470   17.3210 O   0  0  0  0  0  0  0  0  0  0  0  0
    5.3470    2.2360   15.8870 H   0  0  0  0  0  0  0  0  0  0  0  0
    7.0300    3.1340   14.2600 H   0  0  0  0  0  0  0  0  0  0  0  0
    7.3400    5.5820   14.0000 H   0  0  0  0  0  0  0  0  0  0  0  0
    5.9750    7.1850   15.3640 H   0  0  0  0  0  0  0  0  0  0  0  0
   -1.8630   12.7400   23.0280 S   0  0  0  0  0  0  0  0  0  0  0  0
   -1.0120   13.8740   23.3190 O   0  0  0  0  0  0  0  0  0  0  0  0
   -2.7920   12.2330   24.0170 O   0  0  0  0  0  0  0  0  0  0  0  0
   -0.5290   14.1330   18.9700 C   0  0  0  0  0  0  0  0  0  0  0  0
   -1.2130   14.2230   20.1600 C   0  0  0  0  0  0  0  0  0  0  0  0
   -2.0420   13.1640   20.4390 C   0  0  0  0  0  0  0  0  0  0  0  0
   -2.7710   13.0700   21.6430 N   0  0  0  0  0  0  0  0  0  0  0  0
   -2.2190   12.0960   19.6570 N   0  0  0  0  0  0  0  0  0  0  0  0
   -1.4910   12.0850   18.5290 C   0  0  0  0  0  0  0  0  0  0  0  0
   -0.6560   13.0710   18.1470 N   0  0  0  0  0  0  0  0  0  0  0  0
   -1.1050   15.0630   20.8310 H   0  0  0  0  0  0  0  0  0  0  0  0
   -3.5410   12.4100   21.5540 H   0  0  0  0  0  0  0  0  0  0  0  0
    0.4110   15.2230   18.5530 C   0  0  0  0  0  0  0  0  0  0  0  0
   -0.1070   15.9450   17.9140 H   0  0  0  0  0  0  0  0  0  0  0  0
    0.8000   15.7570   19.4270 H   0  0  0  0  0  0  0  0  0  0  0  0
    1.2620   14.8000   18.0080 H   0  0  0  0  0  0  0  0  0  0  0  0
   -1.6330   10.9080   17.6170 C   0  0  0  0  0  0  0  0  0  0  0  0
   -2.5950   10.9520   17.1000 H   0  0  0  0  0  0  0  0  0  0  0  0
   -1.5820    9.9700   18.1830 H   0  0  0  0  0  0  0  0  0  0  0  0
   -0.8290   10.9020   16.8740 H   0  0  0  0  0  0  0  0  0  0  0  0
  1  6  1  0  0  0  0
  1 36  1  0  0  0  0
  2  1  2  0  0  0  0
  3  2  1  0  0  0  0
  3  4  2  0  0  0  0
  4  5  1  0  0  0  0
  5  9  1  0  0  0  0
  5  6  2  0  0  0  0
  6 10  1  0  0  0  0
  7  2  1  0  0  0  0
  8  3  1  0  0  0  0
 11  4  1  0  0  0  0
 11 14  1  0  0  0  0
 12 11  1  0  0  0  0
 13 12  2  0  0  0  0
 15 12  1  0  0  0  0
 15 16  1  0  0  0  0
 17 15  1  0  0  0  0
 18 19  1  0  0  0  0
 18 15  1  0  0  0  0
 20 18  1  0  0  0  0
 21 18  1  0  0  0  0
 22 23  2  0  0  0  0
 22 21  1  0  0  0  0
 24 22  1  0  0  0  0
 25 32  1  0  0  0  0
 25 24  2  0  0  0  0
 26 25  1  0  0  0  0
 27 26  2  0  0  0  0
 27 28  1  0  0  0  0
 28 29  2  0  0  0  0
 29 24  1  0  0  0  0
 29 30  1  0  0  0  0
 30 31  2  0  0  0  0
 30 21  1  0  0  0  0
 33 26  1  0  0  0  0
 34 27  1  0  0  0  0
 35 28  1  0  0  0  0
 36 37  2  0  0  0  0
 36 38  2  0  0  0  0
 39 40  1  0  0  0  0
 40 41  2  0  0  0  0
 40 46  1  0  0  0  0
 41 42  1  0  0  0  0
 42 36  1  0  0  0  0
 43 41  1  0  0  0  0
 44 43  2  0  0  0  0
 45 44  1  0  0  0  0
 45 39  2  0  0  0  0
 47 42  1  0  0  0  0
 48 39  1  0  0  0  0
 48 50  1  0  0  0  0
 49 48  1  0  0  0  0
 51 48  1  0  0  0  0
 52 54  1  0  0  0  0
 52 44  1  0  0  0  0
 53 52  1  0  0  0  0
 55 52  1  0  0  0  0
M  END
>  <MODEL>
21

>  <REMARK>
 VINA RESULT:    -7.701      2.904      9.542
 INTER + INTRA:         -10.844
 INTER:                 -10.930
 INTRA:                   0.086
 UNBOUND:                 0.009
  Name = 
  8 active torsions:
  status: ('A' for Active; 'I' for Inactive)
    1  A    between atoms: C_1  and  C_2
    2  A    between atoms: N_5  and  S_6
    3  A    between atoms: S_6  and  C_9
    4  A    between atoms: C_12  and  N_13
    5  A    between atoms: C_14  and  C_16
    6  A    between atoms: C_16  and  C_17
    7  A    between atoms: C_17  and  N_18
    8  A    between atoms: C_32  and  C_33
                            x       y       z     vdW  Elec       q    Type
                         _______ _______ _______ _____ _____    ______ ____

>  <TORSDO>
F 8

$$$$
=
 OpenBabel07192307433D

 55 58  0  0  0  0  0  0  0  0999 V2000
    1.3560    8.4420   20.5870 C   0  0  0  0  0  0  0  0  0  0  0  0
    1.7700    8.6770   19.2760 C   0  0  0  0  0  0  0  0  0  0  0  0
    2.0640    7.5970   18.4380 C   0  0  0  0  0  0  0  0  0  0  0  0
    1.9680    6.2830   18.9090 C   0  0  0  0  0  0  0  0  0  0  0  0
    1.5830    6.0650   20.2400 C   0  0  0  0  0  0  0  0  0  0  0  0
    1.2770    7.1390   21.0820 C   0  0  0  0  0  0  0  0  0  0  0  0
    1.8570    9.6890   18.8870 H   0  0  0  0  0  0  0  0  0  0  0  0
    2.3700    7.8190   17.4190 H   0  0  0  0  0  0  0  0  0  0  0  0
    1.5100    5.0560   20.6410 H   0  0  0  0  0  0  0  0  0  0  0  0
    0.9810    6.9470   22.1110 H   0  0  0  0  0  0  0  0  0  0  0  0
    2.2380    5.1410   18.1270 N   0  0  0  0  0  0  0  0  0  0  0  0
    1.7480    3.8600   18.3100 C   0  0  0  0  0  0  0  0  0  0  0  0
    0.9950    3.4890   19.2050 O   0  0  0  0  0  0  0  0  0  0  0  0
    2.8280    5.2930   17.3150 H   0  0  0  0  0  0  0  0  0  0  0  0
    2.2700    2.8800   17.2780 C   0  0  0  0  0  0  0  0  0  0  0  0
    2.3530    3.4190   16.3270 H   0  0  0  0  0  0  0  0  0  0  0  0
    1.5610    2.0640   17.1110 H   0  0  0  0  0  0  0  0  0  0  0  0
    3.6370    2.3380   17.6800 C   0  0  0  0  0  0  0  0  0  0  0  0
    3.5620    1.8900   18.6780 H   0  0  0  0  0  0  0  0  0  0  0  0
    3.9480    1.5410   16.9950 H   0  0  0  0  0  0  0  0  0  0  0  0
    4.6960    3.3350   17.7480 N   0  0  0  0  0  0  0  0  0  0  0  0
    5.1450    4.0890   16.6970 C   0  0  0  0  0  0  0  0  0  0  0  0
    4.8200    4.0490   15.5230 O   0  0  0  0  0  0  0  0  0  0  0  0
    6.1310    5.0220   17.2380 C   0  0  0  0  0  0  0  0  0  0  0  0
    6.9140    5.9680   16.6060 C   0  0  0  0  0  0  0  0  0  0  0  0
    7.7710    6.7280   17.4100 C   0  0  0  0  0  0  0  0  0  0  0  0
    7.8200    6.5290   18.8060 C   0  0  0  0  0  0  0  0  0  0  0  0
    7.0150    5.5650   19.4220 C   0  0  0  0  0  0  0  0  0  0  0  0
    6.1820    4.8250   18.6060 C   0  0  0  0  0  0  0  0  0  0  0  0
    5.2280    3.7680   18.9350 C   0  0  0  0  0  0  0  0  0  0  0  0
    4.9740    3.4130   20.0710 O   0  0  0  0  0  0  0  0  0  0  0  0
    6.8670    6.1100   15.5320 H   0  0  0  0  0  0  0  0  0  0  0  0
    8.4090    7.4820   16.9540 H   0  0  0  0  0  0  0  0  0  0  0  0
    8.4950    7.1320   19.4100 H   0  0  0  0  0  0  0  0  0  0  0  0
    7.0430    5.3980   20.4950 H   0  0  0  0  0  0  0  0  0  0  0  0
    0.9560    9.8100   21.6530 S   0  0  0  0  0  0  0  0  0  0  0  0
    1.7620   10.9450   21.2540 O   0  0  0  0  0  0  0  0  0  0  0  0
    0.9860    9.3180   23.0150 O   0  0  0  0  0  0  0  0  0  0  0  0
   -0.8400   12.8600   18.8860 C   0  0  0  0  0  0  0  0  0  0  0  0
   -0.6120   12.2550   20.1000 C   0  0  0  0  0  0  0  0  0  0  0  0
   -0.8950   10.9120   20.1450 C   0  0  0  0  0  0  0  0  0  0  0  0
   -0.6630   10.1270   21.2930 N   0  0  0  0  0  0  0  0  0  0  0  0
   -1.3620   10.1860   19.1240 N   0  0  0  0  0  0  0  0  0  0  0  0
   -1.5290   10.8580   17.9740 C   0  0  0  0  0  0  0  0  0  0  0  0
   -1.2950   12.1750   17.8160 N   0  0  0  0  0  0  0  0  0  0  0  0
   -0.2330   12.7930   20.9560 H   0  0  0  0  0  0  0  0  0  0  0  0
   -1.1980    9.2620   21.2610 H   0  0  0  0  0  0  0  0  0  0  0  0
   -0.5660   14.3230   18.7060 C   0  0  0  0  0  0  0  0  0  0  0  0
   -0.6110   14.8370   19.6710 H   0  0  0  0  0  0  0  0  0  0  0  0
    0.4300   14.4820   18.2780 H   0  0  0  0  0  0  0  0  0  0  0  0
   -1.3020   14.7640   18.0250 H   0  0  0  0  0  0  0  0  0  0  0  0
   -2.0350   10.0990   16.7890 C   0  0  0  0  0  0  0  0  0  0  0  0
   -3.1100   10.2570   16.6770 H   0  0  0  0  0  0  0  0  0  0  0  0
   -1.8500    9.0250   16.9080 H   0  0  0  0  0  0  0  0  0  0  0  0
   -1.5280   10.4330   15.8780 H   0  0  0  0  0  0  0  0  0  0  0  0
  1  6  1  0  0  0  0
  1 36  1  0  0  0  0
  2  1  2  0  0  0  0
  3  4  2  0  0  0  0
  3  2  1  0  0  0  0
  4  5  1  0  0  0  0
  5  9  1  0  0  0  0
  5  6  2  0  0  0  0
  6 10  1  0  0  0  0
  7  2  1  0  0  0  0
  8  3  1  0  0  0  0
 11 12  1  0  0  0  0
 11  4  1  0  0  0  0
 12 13  2  0  0  0  0
 14 11  1  0  0  0  0
 15 18  1  0  0  0  0
 15 12  1  0  0  0  0
 16 15  1  0  0  0  0
 17 15  1  0  0  0  0
 18 21  1  0  0  0  0
 18 19  1  0  0  0  0
 20 18  1  0  0  0  0
 21 30  1  0  0  0  0
 22 24  1  0  0  0  0
 22 21  1  0  0  0  0
 23 22  2  0  0  0  0
 24 29  1  0  0  0  0
 25 24  2  0  0  0  0
 25 26  1  0  0  0  0
 26 27  2  0  0  0  0
 27 34  1  0  0  0  0
 27 28  1  0  0  0  0
 28 35  1  0  0  0  0
 29 30  1  0  0  0  0
 29 28  2  0  0  0  0
 30 31  2  0  0  0  0
 32 25  1  0  0  0  0
 33 26  1  0  0  0  0
 36 38  2  0  0  0  0
 37 36  2  0  0  0  0
 39 40  1  0  0  0  0
 40 41  2  0  0  0  0
 40 46  1  0  0  0  0
 41 42  1  0  0  0  0
 42 36  1  0  0  0  0
 43 41  1  0  0  0  0
 44 43  2  0  0  0  0
 45 44  1  0  0  0  0
 45 39  2  0  0  0  0
 47 42  1  0  0  0  0
 48 39  1  0  0  0  0
 48 49  1  0  0  0  0
 50 48  1  0  0  0  0
 51 48  1  0  0  0  0
 52 54  1  0  0  0  0
 52 44  1  0  0  0  0
 53 52  1  0  0  0  0
 55 52  1  0  0  0  0
M  END
>  <MODEL>
22

>  <REMARK>
 VINA RESULT:    -7.688      2.384      9.130
 INTER + INTRA:         -10.825
 INTER:                 -10.647
 INTRA:                  -0.178
 UNBOUND:                 0.009
  Name = 
  8 active torsions:
  status: ('A' for Active; 'I' for Inactive)
    1  A    between atoms: C_1  and  C_2
    2  A    between atoms: N_5  and  S_6
    3  A    between atoms: S_6  and  C_9
    4  A    between atoms: C_12  and  N_13
    5  A    between atoms: C_14  and  C_16
    6  A    between atoms: C_16  and  C_17
    7  A    between atoms: C_17  and  N_18
    8  A    between atoms: C_32  and  C_33
                            x       y       z     vdW  Elec       q    Type
                         _______ _______ _______ _____ _____    ______ ____

>  <TORSDO>
F 8

$$$$
=
 OpenBabel07192307433D

 55 58  0  0  0  0  0  0  0  0999 V2000
    1.2220    9.6180   19.4410 C   0  0  0  0  0  0  0  0  0  0  0  0
    1.2980    8.6550   20.4480 C   0  0  0  0  0  0  0  0  0  0  0  0
    1.8560    7.4030   20.1700 C   0  0  0  0  0  0  0  0  0  0  0  0
    2.3180    7.1000   18.8850 C   0  0  0  0  0  0  0  0  0  0  0  0
    2.2040    8.0660   17.8750 C   0  0  0  0  0  0  0  0  0  0  0  0
    1.6570    9.3240   18.1470 C   0  0  0  0  0  0  0  0  0  0  0  0
    0.9420    8.8650   21.4540 H   0  0  0  0  0  0  0  0  0  0  0  0
    1.9110    6.6850   20.9840 H   0  0  0  0  0  0  0  0  0  0  0  0
    2.5430    7.8570   16.8630 H   0  0  0  0  0  0  0  0  0  0  0  0
    1.5760   10.0600   17.3490 H   0  0  0  0  0  0  0  0  0  0  0  0
    2.9000    5.8660   18.5260 N   0  0  0  0  0  0  0  0  0  0  0  0
    2.2950    4.8090   17.8700 C   0  0  0  0  0  0  0  0  0  0  0  0
    1.1280    4.7560   17.4940 O   0  0  0  0  0  0  0  0  0  0  0  0
    3.8870    5.7660   18.7420 H   0  0  0  0  0  0  0  0  0  0  0  0
    3.2300    3.6330   17.6670 C   0  0  0  0  0  0  0  0  0  0  0  0
    2.6350    2.8080   17.2590 H   0  0  0  0  0  0  0  0  0  0  0  0
    3.6370    3.2800   18.6200 H   0  0  0  0  0  0  0  0  0  0  0  0
    4.3500    3.9860   16.6960 C   0  0  0  0  0  0  0  0  0  0  0  0
    4.9450    3.0860   16.4970 H   0  0  0  0  0  0  0  0  0  0  0  0
    3.9330    4.3110   15.7350 H   0  0  0  0  0  0  0  0  0  0  0  0
    5.2770    5.0020   17.1720 N   0  0  0  0  0  0  0  0  0  0  0  0
    6.1910    4.8350   18.1790 C   0  0  0  0  0  0  0  0  0  0  0  0
    6.3750    3.8720   18.9010 O   0  0  0  0  0  0  0  0  0  0  0  0
    6.9710    6.0680   18.2480 C   0  0  0  0  0  0  0  0  0  0  0  0
    7.9850    6.4410   19.1090 C   0  0  0  0  0  0  0  0  0  0  0  0
    8.5540    7.7050   18.9150 C   0  0  0  0  0  0  0  0  0  0  0  0
    8.1040    8.5500   17.8790 C   0  0  0  0  0  0  0  0  0  0  0  0
    7.0770    8.1470   17.0200 C   0  0  0  0  0  0  0  0  0  0  0  0
    6.5290    6.8980   17.2340 C   0  0  0  0  0  0  0  0  0  0  0  0
    5.4670    6.1930   16.5190 C   0  0  0  0  0  0  0  0  0  0  0  0
    4.9240    6.6210   15.5190 O   0  0  0  0  0  0  0  0  0  0  0  0
    8.3200    5.7820   19.9020 H   0  0  0  0  0  0  0  0  0  0  0  0
    9.3530    8.0420   19.5720 H   0  0  0  0  0  0  0  0  0  0  0  0
    8.5620    9.5290   17.7490 H   0  0  0  0  0  0  0  0  0  0  0  0
    6.7180    8.7870   16.2180 H   0  0  0  0  0  0  0  0  0  0  0  0
    0.5360   11.2220   19.7930 S   0  0  0  0  0  0  0  0  0  0  0  0
    0.1400   11.8290   18.5400 O   0  0  0  0  0  0  0  0  0  0  0  0
    1.4530   11.8950   20.6900 O   0  0  0  0  0  0  0  0  0  0  0  0
   -2.6420   13.9640   21.3960 C   0  0  0  0  0  0  0  0  0  0  0  0
   -1.6250   13.0420   21.4860 C   0  0  0  0  0  0  0  0  0  0  0  0
   -1.8150   11.8900   20.7630 C   0  0  0  0  0  0  0  0  0  0  0  0
   -0.8450   10.8680   20.6970 N   0  0  0  0  0  0  0  0  0  0  0  0
   -2.8850   11.6190   20.0090 N   0  0  0  0  0  0  0  0  0  0  0  0
   -3.8130   12.5890   19.9640 C   0  0  0  0  0  0  0  0  0  0  0  0
   -3.7380   13.7520   20.6380 N   0  0  0  0  0  0  0  0  0  0  0  0
   -0.7370   13.2110   22.0780 H   0  0  0  0  0  0  0  0  0  0  0  0
   -1.2590    9.9900   20.3900 H   0  0  0  0  0  0  0  0  0  0  0  0
   -2.5520   15.2640   22.1360 C   0  0  0  0  0  0  0  0  0  0  0  0
   -3.4410   15.8720   21.9410 H   0  0  0  0  0  0  0  0  0  0  0  0
   -2.4830   15.0940   23.2160 H   0  0  0  0  0  0  0  0  0  0  0  0
   -1.6580   15.8150   21.8230 H   0  0  0  0  0  0  0  0  0  0  0  0
   -5.0280   12.3530   19.1240 C   0  0  0  0  0  0  0  0  0  0  0  0
   -5.9050   12.7930   19.6080 H   0  0  0  0  0  0  0  0  0  0  0  0
   -5.2050   11.2800   18.9890 H   0  0  0  0  0  0  0  0  0  0  0  0
   -4.9020   12.8060   18.1360 H   0  0  0  0  0  0  0  0  0  0  0  0
  1 36  1  0  0  0  0
  1  2  1  0  0  0  0
  2  7  1  0  0  0  0
  3  2  2  0  0  0  0
  3  8  1  0  0  0  0
  4  3  1  0  0  0  0
  5  6  1  0  0  0  0
  5  4  2  0  0  0  0
  6  1  2  0  0  0  0
  9  5  1  0  0  0  0
 10  6  1  0  0  0  0
 11 14  1  0  0  0  0
 11  4  1  0  0  0  0
 12 11  1  0  0  0  0
 13 12  2  0  0  0  0
 15 12  1  0  0  0  0
 15 17  1  0  0  0  0
 16 15  1  0  0  0  0
 18 21  1  0  0  0  0
 18 15  1  0  0  0  0
 19 18  1  0  0  0  0
 20 18  1  0  0  0  0
 21 22  1  0  0  0  0
 22 24  1  0  0  0  0
 22 23  2  0  0  0  0
 24 25  1  0  0  0  0
 25 32  1  0  0  0  0
 26 25  2  0  0  0  0
 26 33  1  0  0  0  0
 27 26  1  0  0  0  0
 28 29  1  0  0  0  0
 28 27  2  0  0  0  0
 29 24  2  0  0  0  0
 30 21  1  0  0  0  0
 30 29  1  0  0  0  0
 31 30  2  0  0  0  0
 34 27  1  0  0  0  0
 35 28  1  0  0  0  0
 36 38  2  0  0  0  0
 36 42  1  0  0  0  0
 37 36  2  0  0  0  0
 39 40  1  0  0  0  0
 39 48  1  0  0  0  0
 40 46  1  0  0  0  0
 41 40  2  0  0  0  0
 42 41  1  0  0  0  0
 43 41  1  0  0  0  0
 44 43  2  0  0  0  0
 44 45  1  0  0  0  0
 45 39  2  0  0  0  0
 47 42  1  0  0  0  0
 48 50  1  0  0  0  0
 49 48  1  0  0  0  0
 51 48  1  0  0  0  0
 52 53  1  0  0  0  0
 52 44  1  0  0  0  0
 54 52  1  0  0  0  0
 55 52  1  0  0  0  0
M  END
>  <MODEL>
23

>  <REMARK>
 VINA RESULT:    -7.620      2.787      9.879
 INTER + INTRA:         -10.729
 INTER:                 -10.014
 INTRA:                  -0.715
 UNBOUND:                 0.009
  Name = 
  8 active torsions:
  status: ('A' for Active; 'I' for Inactive)
    1  A    between atoms: C_1  and  C_2
    2  A    between atoms: N_5  and  S_6
    3  A    between atoms: S_6  and  C_9
    4  A    between atoms: C_12  and  N_13
    5  A    between atoms: C_14  and  C_16
    6  A    between atoms: C_16  and  C_17
    7  A    between atoms: C_17  and  N_18
    8  A    between atoms: C_32  and  C_33
                            x       y       z     vdW  Elec       q    Type
                         _______ _______ _______ _____ _____    ______ ____

>  <TORSDO>
F 8

$$$$
=
 OpenBabel07192307433D

 55 58  0  0  0  0  0  0  0  0999 V2000
    1.1080    8.6860   20.4260 C   0  0  0  0  0  0  0  0  0  0  0  0
    1.6500    8.7930   19.1450 C   0  0  0  0  0  0  0  0  0  0  0  0
    2.2450    7.6760   18.5480 C   0  0  0  0  0  0  0  0  0  0  0  0
    2.3200    6.4590   19.2340 C   0  0  0  0  0  0  0  0  0  0  0  0
    1.8000    6.3770   20.5340 C   0  0  0  0  0  0  0  0  0  0  0  0
    1.1950    7.4860   21.1340 C   0  0  0  0  0  0  0  0  0  0  0  0
    1.6080    9.7300   18.5930 H   0  0  0  0  0  0  0  0  0  0  0  0
    2.6430    7.7940   17.5440 H   0  0  0  0  0  0  0  0  0  0  0  0
    1.8540    5.4480   21.0980 H   0  0  0  0  0  0  0  0  0  0  0  0
    0.7990    7.4010   22.1440 H   0  0  0  0  0  0  0  0  0  0  0  0
    2.8940    5.2860   18.7000 N   0  0  0  0  0  0  0  0  0  0  0  0
    2.2890    4.3530   17.8770 C   0  0  0  0  0  0  0  0  0  0  0  0
    1.1290    4.3770   17.4760 O   0  0  0  0  0  0  0  0  0  0  0  0
    3.8740    5.1380   18.9160 H   0  0  0  0  0  0  0  0  0  0  0  0
    3.2120    3.2070   17.5120 C   0  0  0  0  0  0  0  0  0  0  0  0
    2.5980    2.4260   17.0490 H   0  0  0  0  0  0  0  0  0  0  0  0
    3.6620    2.7600   18.4040 H   0  0  0  0  0  0  0  0  0  0  0  0
    4.2870    3.6620   16.5320 C   0  0  0  0  0  0  0  0  0  0  0  0
    4.8870    2.7930   16.2340 H   0  0  0  0  0  0  0  0  0  0  0  0
    3.8270    4.0600   15.6200 H   0  0  0  0  0  0  0  0  0  0  0  0
    5.2170    4.6510   17.0570 N   0  0  0  0  0  0  0  0  0  0  0  0
    5.9320    4.5310   18.2190 C   0  0  0  0  0  0  0  0  0  0  0  0
    5.9000    3.6460   19.0570 O   0  0  0  0  0  0  0  0  0  0  0  0
    6.8060    5.6980   18.2990 C   0  0  0  0  0  0  0  0  0  0  0  0
    7.6960    6.0880   19.2810 C   0  0  0  0  0  0  0  0  0  0  0  0
    8.4090    7.2720   19.0620 C   0  0  0  0  0  0  0  0  0  0  0  0
    8.2200    8.0240   17.8840 C   0  0  0  0  0  0  0  0  0  0  0  0
    7.3140    7.6060   16.9040 C   0  0  0  0  0  0  0  0  0  0  0  0
    6.6200    6.4370   17.1450 C   0  0  0  0  0  0  0  0  0  0  0  0
    5.6270    5.7390   16.3310 C   0  0  0  0  0  0  0  0  0  0  0  0
    5.3000    6.0890   15.2130 O   0  0  0  0  0  0  0  0  0  0  0  0
    7.8300    5.5020   20.1830 H   0  0  0  0  0  0  0  0  0  0  0  0
    9.1180    7.6200   19.8110 H   0  0  0  0  0  0  0  0  0  0  0  0
    8.7860    8.9420   17.7370 H   0  0  0  0  0  0  0  0  0  0  0  0
    7.1570    8.1750   15.9910 H   0  0  0  0  0  0  0  0  0  0  0  0
    0.3280   10.0950   21.1830 S   0  0  0  0  0  0  0  0  0  0  0  0
    1.3570   11.0580   21.5140 O   0  0  0  0  0  0  0  0  0  0  0  0
   -0.5760    9.5940   22.1970 O   0  0  0  0  0  0  0  0  0  0  0  0
   -2.2780   13.7550   21.1290 C   0  0  0  0  0  0  0  0  0  0  0  0
   -2.0140   12.4070   21.0480 C   0  0  0  0  0  0  0  0  0  0  0  0
   -1.0690   12.0520   20.1170 C   0  0  0  0  0  0  0  0  0  0  0  0
   -0.6370   10.7210   19.9470 N   0  0  0  0  0  0  0  0  0  0  0  0
   -0.4170   12.9000   19.3160 N   0  0  0  0  0  0  0  0  0  0  0  0
   -0.7240   14.1960   19.4850 C   0  0  0  0  0  0  0  0  0  0  0  0
   -1.6410   14.6600   20.3570 N   0  0  0  0  0  0  0  0  0  0  0  0
   -2.5090   11.6790   21.6740 H   0  0  0  0  0  0  0  0  0  0  0  0
   -0.1860   10.5950   19.0430 H   0  0  0  0  0  0  0  0  0  0  0  0
   -3.2880   14.2700   22.1090 C   0  0  0  0  0  0  0  0  0  0  0  0
   -3.3280   13.6190   22.9880 H   0  0  0  0  0  0  0  0  0  0  0  0
   -3.0260   15.2800   22.4420 H   0  0  0  0  0  0  0  0  0  0  0  0
   -4.2790   14.3140   21.6440 H   0  0  0  0  0  0  0  0  0  0  0  0
   -0.0170   15.1990   18.6280 C   0  0  0  0  0  0  0  0  0  0  0  0
   -0.7460   15.8540   18.1440 H   0  0  0  0  0  0  0  0  0  0  0  0
    0.5730   14.6980   17.8520 H   0  0  0  0  0  0  0  0  0  0  0  0
    0.6610   15.8070   19.2340 H   0  0  0  0  0  0  0  0  0  0  0  0
  1  6  1  0  0  0  0
  1 36  1  0  0  0  0
  2  1  2  0  0  0  0
  3  2  1  0  0  0  0
  3  4  2  0  0  0  0
  4  5  1  0  0  0  0
  5  9  1  0  0  0  0
  5  6  2  0  0  0  0
  6 10  1  0  0  0  0
  7  2  1  0  0  0  0
  8  3  1  0  0  0  0
 11 14  1  0  0  0  0
 11  4  1  0  0  0  0
 12 11  1  0  0  0  0
 13 12  2  0  0  0  0
 15 12  1  0  0  0  0
 15 17  1  0  0  0  0
 16 15  1  0  0  0  0
 18 21  1  0  0  0  0
 18 15  1  0  0  0  0
 19 18  1  0  0  0  0
 20 18  1  0  0  0  0
 21 22  1  0  0  0  0
 22 24  1  0  0  0  0
 22 23  2  0  0  0  0
 24 25  1  0  0  0  0
 25 32  1  0  0  0  0
 26 25  2  0  0  0  0
 26 33  1  0  0  0  0
 27 26  1  0  0  0  0
 28 29  1  0  0  0  0
 28 27  2  0  0  0  0
 29 24  2  0  0  0  0
 30 21  1  0  0  0  0
 30 29  1  0  0  0  0
 31 30  2  0  0  0  0
 34 27  1  0  0  0  0
 35 28  1  0  0  0  0
 36 37  2  0  0  0  0
 36 38  2  0  0  0  0
 39 48  1  0  0  0  0
 40 39  1  0  0  0  0
 40 46  1  0  0  0  0
 41 40  2  0  0  0  0
 42 41  1  0  0  0  0
 42 36  1  0  0  0  0
 43 44  2  0  0  0  0
 43 41  1  0  0  0  0
 44 45  1  0  0  0  0
 45 39  2  0  0  0  0
 47 42  1  0  0  0  0
 48 50  1  0  0  0  0
 48 49  1  0  0  0  0
 51 48  1  0  0  0  0
 52 55  1  0  0  0  0
 52 44  1  0  0  0  0
 53 52  1  0  0  0  0
 54 52  1  0  0  0  0
M  END
>  <MODEL>
24

>  <REMARK>
 VINA RESULT:    -7.616      2.844      9.625
 INTER + INTRA:         -10.724
 INTER:                 -10.247
 INTRA:                  -0.477
 UNBOUND:                 0.009
  Name = 
  8 active torsions:
  status: ('A' for Active; 'I' for Inactive)
    1  A    between atoms: C_1  and  C_2
    2  A    between atoms: N_5  and  S_6
    3  A    between atoms: S_6  and  C_9
    4  A    between atoms: C_12  and  N_13
    5  A    between atoms: C_14  and  C_16
    6  A    between atoms: C_16  and  C_17
    7  A    between atoms: C_17  and  N_18
    8  A    between atoms: C_32  and  C_33
                            x       y       z     vdW  Elec       q    Type
                         _______ _______ _______ _____ _____    ______ ____

>  <TORSDO>
F 8

$$$$
=
 OpenBabel07192307433D

 55 58  0  0  0  0  0  0  0  0999 V2000
    2.2330    7.7020   18.9370 C   0  0  0  0  0  0  0  0  0  0  0  0
    1.9600    7.5760   20.2990 C   0  0  0  0  0  0  0  0  0  0  0  0
    1.2430    8.5800   20.9580 C   0  0  0  0  0  0  0  0  0  0  0  0
    0.8160    9.7200   20.2680 C   0  0  0  0  0  0  0  0  0  0  0  0
    1.1270    9.8470   18.9070 C   0  0  0  0  0  0  0  0  0  0  0  0
    1.8350    8.8440   18.2370 C   0  0  0  0  0  0  0  0  0  0  0  0
    2.2850    6.7020   20.8590 H   0  0  0  0  0  0  0  0  0  0  0  0
    1.0370    8.4390   22.0160 H   0  0  0  0  0  0  0  0  0  0  0  0
    0.8200   10.7260   18.3450 H   0  0  0  0  0  0  0  0  0  0  0  0
    2.0670    8.9630   17.1810 H   0  0  0  0  0  0  0  0  0  0  0  0
    0.0820   10.7700   20.8570 N   0  0  0  0  0  0  0  0  0  0  0  0
    0.5250   12.0490   21.1450 C   0  0  0  0  0  0  0  0  0  0  0  0
    1.6520   12.4920   20.9470 O   0  0  0  0  0  0  0  0  0  0  0  0
   -0.8930   10.5690   21.0530 H   0  0  0  0  0  0  0  0  0  0  0  0
   -0.5430   12.9070   21.7940 C   0  0  0  0  0  0  0  0  0  0  0  0
   -0.0430   13.5500   22.5290 H   0  0  0  0  0  0  0  0  0  0  0  0
   -1.2580   12.2960   22.3540 H   0  0  0  0  0  0  0  0  0  0  0  0
   -1.2570   13.7690   20.7600 C   0  0  0  0  0  0  0  0  0  0  0  0
   -2.0320   14.3590   21.2640 H   0  0  0  0  0  0  0  0  0  0  0  0
   -0.5560   14.4810   20.3080 H   0  0  0  0  0  0  0  0  0  0  0  0
   -1.9210   13.0270   19.6980 N   0  0  0  0  0  0  0  0  0  0  0  0
   -1.3370   12.6200   18.5280 C   0  0  0  0  0  0  0  0  0  0  0  0
   -0.2110   12.8320   18.1130 O   0  0  0  0  0  0  0  0  0  0  0  0
   -2.3330   11.8260   17.8140 C   0  0  0  0  0  0  0  0  0  0  0  0
   -2.2770   11.2200   16.5740 C   0  0  0  0  0  0  0  0  0  0  0  0
   -3.4090   10.5100   16.1590 C   0  0  0  0  0  0  0  0  0  0  0  0
   -4.5510   10.4220   16.9820 C   0  0  0  0  0  0  0  0  0  0  0  0
   -4.5820   11.0440   18.2340 C   0  0  0  0  0  0  0  0  0  0  0  0
   -3.4540   11.7430   18.6190 C   0  0  0  0  0  0  0  0  0  0  0  0
   -3.1700   12.4820   19.8470 C   0  0  0  0  0  0  0  0  0  0  0  0
   -3.9260   12.5320   20.7990 O   0  0  0  0  0  0  0  0  0  0  0  0
   -1.3930   11.2960   15.9510 H   0  0  0  0  0  0  0  0  0  0  0  0
   -3.4110   10.0180   15.1880 H   0  0  0  0  0  0  0  0  0  0  0  0
   -5.4200    9.8640   16.6370 H   0  0  0  0  0  0  0  0  0  0  0  0
   -5.4540   10.9880   18.8800 H   0  0  0  0  0  0  0  0  0  0  0  0
    3.1240    6.4180   18.0850 S   0  0  0  0  0  0  0  0  0  0  0  0
    3.9630    7.0390   17.0810 O   0  0  0  0  0  0  0  0  0  0  0  0
    2.1640    5.3950   17.7240 O   0  0  0  0  0  0  0  0  0  0  0  0
    2.2740    3.0920   20.9830 C   0  0  0  0  0  0  0  0  0  0  0  0
    2.5810    4.3810   20.6150 C   0  0  0  0  0  0  0  0  0  0  0  0
    3.6840    4.5100   19.8060 C   0  0  0  0  0  0  0  0  0  0  0  0
    4.1020    5.7540   19.2900 N   0  0  0  0  0  0  0  0  0  0  0  0
    4.4450    3.5020   19.3710 N   0  0  0  0  0  0  0  0  0  0  0  0
    4.0520    2.2790   19.7620 C   0  0  0  0  0  0  0  0  0  0  0  0
    2.9970    2.0330   20.5620 N   0  0  0  0  0  0  0  0  0  0  0  0
    1.9980    5.2320   20.9350 H   0  0  0  0  0  0  0  0  0  0  0  0
    5.0720    5.7150   18.9820 H   0  0  0  0  0  0  0  0  0  0  0  0
    1.0910    2.8180   21.8620 C   0  0  0  0  0  0  0  0  0  0  0  0
    1.3540    2.9830   22.9120 H   0  0  0  0  0  0  0  0  0  0  0  0
    0.2560    3.4790   21.6080 H   0  0  0  0  0  0  0  0  0  0  0  0
    0.7550    1.7830   21.7300 H   0  0  0  0  0  0  0  0  0  0  0  0
    4.8540    1.1050   19.2960 C   0  0  0  0  0  0  0  0  0  0  0  0
    5.4210    1.3750   18.4010 H   0  0  0  0  0  0  0  0  0  0  0  0
    4.2010    0.2590   19.0540 H   0  0  0  0  0  0  0  0  0  0  0  0
    5.5510    0.7860   20.0770 H   0  0  0  0  0  0  0  0  0  0  0  0
  1  2  1  0  0  0  0
  2  7  1  0  0  0  0
  2  3  2  0  0  0  0
  3  8  1  0  0  0  0
  4 11  1  0  0  0  0
  4  3  1  0  0  0  0
  5  4  2  0  0  0  0
  6  5  1  0  0  0  0
  6  1  2  0  0  0  0
  9  5  1  0  0  0  0
 10  6  1  0  0  0  0
 11 14  1  0  0  0  0
 11 12  1  0  0  0  0
 12 15  1  0  0  0  0
 13 12  2  0  0  0  0
 15 17  1  0  0  0  0
 15 16  1  0  0  0  0
 18 19  1  0  0  0  0
 18 15  1  0  0  0  0
 20 18  1  0  0  0  0
 21 30  1  0  0  0  0
 21 18  1  0  0  0  0
 22 21  1  0  0  0  0
 23 22  2  0  0  0  0
 24 22  1  0  0  0  0
 24 29  1  0  0  0  0
 25 24  2  0  0  0  0
 26 25  1  0  0  0  0
 26 27  2  0  0  0  0
 27 28  1  0  0  0  0
 28 29  2  0  0  0  0
 28 35  1  0  0  0  0
 29 30  1  0  0  0  0
 30 31  2  0  0  0  0
 32 25  1  0  0  0  0
 33 26  1  0  0  0  0
 34 27  1  0  0  0  0
 36  1  1  0  0  0  0
 36 42  1  0  0  0  0
 37 36  2  0  0  0  0
 38 36  2  0  0  0  0
 39 48  1  0  0  0  0
 40 46  1  0  0  0  0
 40 39  1  0  0  0  0
 41 40  2  0  0  0  0
 42 41  1  0  0  0  0
 43 44  2  0  0  0  0
 43 41  1  0  0  0  0
 44 45  1  0  0  0  0
 45 39  2  0  0  0  0
 47 42  1  0  0  0  0
 48 49  1  0  0  0  0
 50 48  1  0  0  0  0
 51 48  1  0  0  0  0
 52 44  1  0  0  0  0
 52 55  1  0  0  0  0
 53 52  1  0  0  0  0
 54 52  1  0  0  0  0
M  END
>  <MODEL>
25

>  <REMARK>
 VINA RESULT:    -7.605      2.810      4.062
 INTER + INTRA:         -10.708
 INTER:                 -10.092
 INTRA:                  -0.615
 UNBOUND:                 0.009
  Name = 
  8 active torsions:
  status: ('A' for Active; 'I' for Inactive)
    1  A    between atoms: C_1  and  C_2
    2  A    between atoms: N_5  and  S_6
    3  A    between atoms: S_6  and  C_9
    4  A    between atoms: C_12  and  N_13
    5  A    between atoms: C_14  and  C_16
    6  A    between atoms: C_16  and  C_17
    7  A    between atoms: C_17  and  N_18
    8  A    between atoms: C_32  and  C_33
                            x       y       z     vdW  Elec       q    Type
                         _______ _______ _______ _____ _____    ______ ____

>  <TORSDO>
F 8

$$$$
=
 OpenBabel07192307433D

 55 58  0  0  0  0  0  0  0  0999 V2000
    1.5740    9.6310   19.4140 C   0  0  0  0  0  0  0  0  0  0  0  0
    1.1650    9.1240   20.6470 C   0  0  0  0  0  0  0  0  0  0  0  0
    1.3920    7.7780   20.9530 C   0  0  0  0  0  0  0  0  0  0  0  0
    2.0060    6.9310   20.0240 C   0  0  0  0  0  0  0  0  0  0  0  0
    2.3810    7.4480   18.7760 C   0  0  0  0  0  0  0  0  0  0  0  0
    2.1670    8.7950   18.4650 C   0  0  0  0  0  0  0  0  0  0  0  0
    0.6810    9.7610   21.3850 H   0  0  0  0  0  0  0  0  0  0  0  0
    1.0720    7.4230   21.9290 H   0  0  0  0  0  0  0  0  0  0  0  0
    2.8500    6.8130   18.0270 H   0  0  0  0  0  0  0  0  0  0  0  0
    2.4640    9.1760   17.4910 H   0  0  0  0  0  0  0  0  0  0  0  0
    2.2780    5.5670   20.2590 N   0  0  0  0  0  0  0  0  0  0  0  0
    1.9150    4.4890   19.4710 C   0  0  0  0  0  0  0  0  0  0  0  0
    1.2740    4.5320   18.4260 O   0  0  0  0  0  0  0  0  0  0  0  0
    2.8380    5.3650   21.0800 H   0  0  0  0  0  0  0  0  0  0  0  0
    2.3680    3.1620   20.0490 C   0  0  0  0  0  0  0  0  0  0  0  0
    1.9130    2.3690   19.4430 H   0  0  0  0  0  0  0  0  0  0  0  0
    1.9960    3.0250   21.0690 H   0  0  0  0  0  0  0  0  0  0  0  0
    3.8860    3.0350   20.0020 C   0  0  0  0  0  0  0  0  0  0  0  0
    4.3130    3.5700   20.8590 H   0  0  0  0  0  0  0  0  0  0  0  0
    4.1840    1.9840   20.1010 H   0  0  0  0  0  0  0  0  0  0  0  0
    4.5110    3.5890   18.8100 N   0  0  0  0  0  0  0  0  0  0  0  0
    5.3930    4.6360   18.7890 C   0  0  0  0  0  0  0  0  0  0  0  0
    5.7800    5.3380   19.7070 O   0  0  0  0  0  0  0  0  0  0  0  0
    5.8410    4.7820   17.4070 C   0  0  0  0  0  0  0  0  0  0  0  0
    6.6930    5.7050   16.8310 C   0  0  0  0  0  0  0  0  0  0  0  0
    6.9380    5.5790   15.4600 C   0  0  0  0  0  0  0  0  0  0  0  0
    6.3390    4.5470   14.7090 C   0  0  0  0  0  0  0  0  0  0  0  0
    5.4810    3.6240   15.3160 C   0  0  0  0  0  0  0  0  0  0  0  0
    5.2510    3.7730   16.6690 C   0  0  0  0  0  0  0  0  0  0  0  0
    4.4280    2.9830   17.5830 C   0  0  0  0  0  0  0  0  0  0  0  0
    3.8390    1.9690   17.2610 O   0  0  0  0  0  0  0  0  0  0  0  0
    7.1460    6.4950   17.4200 H   0  0  0  0  0  0  0  0  0  0  0  0
    7.6000    6.2860   14.9640 H   0  0  0  0  0  0  0  0  0  0  0  0
    6.5450    4.4700   13.6430 H   0  0  0  0  0  0  0  0  0  0  0  0
    5.0090    2.8240   14.7510 H   0  0  0  0  0  0  0  0  0  0  0  0
    1.3100   11.3480   19.0260 S   0  0  0  0  0  0  0  0  0  0  0  0
    1.9630   11.6330   17.7660 O   0  0  0  0  0  0  0  0  0  0  0  0
    1.6250   12.1110   20.2170 O   0  0  0  0  0  0  0  0  0  0  0  0
   -1.9330   12.0570   22.0540 C   0  0  0  0  0  0  0  0  0  0  0  0
   -1.2600   11.3490   21.0860 C   0  0  0  0  0  0  0  0  0  0  0  0
   -1.0820   12.0100   19.8960 C   0  0  0  0  0  0  0  0  0  0  0  0
   -0.3620   11.4520   18.8190 N   0  0  0  0  0  0  0  0  0  0  0  0
   -1.5050   13.2490   19.6310 N   0  0  0  0  0  0  0  0  0  0  0  0
   -2.1290   13.8700   20.6450 C   0  0  0  0  0  0  0  0  0  0  0  0
   -2.3700   13.3170   21.8490 N   0  0  0  0  0  0  0  0  0  0  0  0
   -0.8930   10.3450   21.2480 H   0  0  0  0  0  0  0  0  0  0  0  0
   -0.5860   11.9230   17.9450 H   0  0  0  0  0  0  0  0  0  0  0  0
   -2.1870   11.4460   23.3990 C   0  0  0  0  0  0  0  0  0  0  0  0
   -1.2420   11.2910   23.9290 H   0  0  0  0  0  0  0  0  0  0  0  0
   -2.8200   12.1000   24.0100 H   0  0  0  0  0  0  0  0  0  0  0  0
   -2.7030   10.4860   23.2860 H   0  0  0  0  0  0  0  0  0  0  0  0
   -2.6150   15.2670   20.4160 C   0  0  0  0  0  0  0  0  0  0  0  0
   -1.9220   15.7970   19.7570 H   0  0  0  0  0  0  0  0  0  0  0  0
   -2.6840   15.8130   21.3630 H   0  0  0  0  0  0  0  0  0  0  0  0
   -3.6070   15.2550   19.9550 H   0  0  0  0  0  0  0  0  0  0  0  0
  1  2  1  0  0  0  0
  2  3  2  0  0  0  0
  2  7  1  0  0  0  0
  3  8  1  0  0  0  0
  4 11  1  0  0  0  0
  4  3  1  0  0  0  0
  5  4  2  0  0  0  0
  6  5  1  0  0  0  0
  6  1  2  0  0  0  0
  9  5  1  0  0  0  0
 10  6  1  0  0  0  0
 11 14  1  0  0  0  0
 12 15  1  0  0  0  0
 12 11  1  0  0  0  0
 13 12  2  0  0  0  0
 15 17  1  0  0  0  0
 16 15  1  0  0  0  0
 18 15  1  0  0  0  0
 18 20  1  0  0  0  0
 18 19  1  0  0  0  0
 21 18  1  0  0  0  0
 22 21  1  0  0  0  0
 22 23  2  0  0  0  0
 24 22  1  0  0  0  0
 25 24  1  0  0  0  0
 25 32  1  0  0  0  0
 26 25  2  0  0  0  0
 27 28  2  0  0  0  0
 27 26  1  0  0  0  0
 28 29  1  0  0  0  0
 29 24  2  0  0  0  0
 29 30  1  0  0  0  0
 30 21  1  0  0  0  0
 31 30  2  0  0  0  0
 33 26  1  0  0  0  0
 34 27  1  0  0  0  0
 35 28  1  0  0  0  0
 36  1  1  0  0  0  0
 36 38  2  0  0  0  0
 37 36  2  0  0  0  0
 39 48  1  0  0  0  0
 40 46  1  0  0  0  0
 40 39  1  0  0  0  0
 41 40  2  0  0  0  0
 42 36  1  0  0  0  0
 42 41  1  0  0  0  0
 43 41  1  0  0  0  0
 43 44  2  0  0  0  0
 44 45  1  0  0  0  0
 45 39  2  0  0  0  0
 47 42  1  0  0  0  0
 48 49  1  0  0  0  0
 48 50  1  0  0  0  0
 51 48  1  0  0  0  0
 52 44  1  0  0  0  0
 52 54  1  0  0  0  0
 53 52  1  0  0  0  0
 55 52  1  0  0  0  0
M  END
>  <MODEL>
26

>  <REMARK>
 VINA RESULT:    -7.592      2.849      9.509
 INTER + INTRA:         -10.690
 INTER:                  -9.961
 INTRA:                  -0.729
 UNBOUND:                 0.009
  Name = 
  8 active torsions:
  status: ('A' for Active; 'I' for Inactive)
    1  A    between atoms: C_1  and  C_2
    2  A    between atoms: N_5  and  S_6
    3  A    between atoms: S_6  and  C_9
    4  A    between atoms: C_12  and  N_13
    5  A    between atoms: C_14  and  C_16
    6  A    between atoms: C_16  and  C_17
    7  A    between atoms: C_17  and  N_18
    8  A    between atoms: C_32  and  C_33
                            x       y       z     vdW  Elec       q    Type
                         _______ _______ _______ _____ _____    ______ ____

>  <TORSDO>
F 8

$$$$
=
 OpenBabel07192307433D

 55 58  0  0  0  0  0  0  0  0999 V2000
   -2.5110   11.9210   19.7430 C   0  0  0  0  0  0  0  0  0  0  0  0
   -2.4620   11.7450   18.3600 C   0  0  0  0  0  0  0  0  0  0  0  0
   -1.4980   10.9000   17.8020 C   0  0  0  0  0  0  0  0  0  0  0  0
   -0.5670   10.2460   18.6160 C   0  0  0  0  0  0  0  0  0  0  0  0
   -0.6080   10.4600   20.0020 C   0  0  0  0  0  0  0  0  0  0  0  0
   -1.5750   11.2950   20.5700 C   0  0  0  0  0  0  0  0  0  0  0  0
   -3.1720   12.2460   17.7040 H   0  0  0  0  0  0  0  0  0  0  0  0
   -1.5010   10.7780   16.7220 H   0  0  0  0  0  0  0  0  0  0  0  0
    0.1090    9.9750   20.6620 H   0  0  0  0  0  0  0  0  0  0  0  0
   -1.5890   11.4480   21.6470 H   0  0  0  0  0  0  0  0  0  0  0  0
    0.4290    9.3730   18.1330 N   0  0  0  0  0  0  0  0  0  0  0  0
    1.7670    9.6550   17.9240 C   0  0  0  0  0  0  0  0  0  0  0  0
    2.3230   10.7330   18.1130 O   0  0  0  0  0  0  0  0  0  0  0  0
    0.1300    8.4190   17.9580 H   0  0  0  0  0  0  0  0  0  0  0  0
    2.5380    8.4700   17.3780 C   0  0  0  0  0  0  0  0  0  0  0  0
    3.2620    8.8560   16.6510 H   0  0  0  0  0  0  0  0  0  0  0  0
    1.8820    7.7880   16.8280 H   0  0  0  0  0  0  0  0  0  0  0  0
    3.2740    7.7350   18.4920 C   0  0  0  0  0  0  0  0  0  0  0  0
    4.3360    7.6630   18.2290 H   0  0  0  0  0  0  0  0  0  0  0  0
    3.2150    8.3040   19.4280 H   0  0  0  0  0  0  0  0  0  0  0  0
    2.8120    6.3770   18.7400 N   0  0  0  0  0  0  0  0  0  0  0  0
    3.1900    5.2670   18.0330 C   0  0  0  0  0  0  0  0  0  0  0  0
    3.9090    5.1850   17.0520 O   0  0  0  0  0  0  0  0  0  0  0  0
    2.5690    4.1180   18.6870 C   0  0  0  0  0  0  0  0  0  0  0  0
    2.5900    2.7770   18.3570 C   0  0  0  0  0  0  0  0  0  0  0  0
    1.8940    1.9020   19.1980 C   0  0  0  0  0  0  0  0  0  0  0  0
    1.2080    2.3810   20.3330 C   0  0  0  0  0  0  0  0  0  0  0  0
    1.2040    3.7440   20.6460 C   0  0  0  0  0  0  0  0  0  0  0  0
    1.8940    4.5880   19.7990 C   0  0  0  0  0  0  0  0  0  0  0  0
    2.0860    6.0350   19.8520 C   0  0  0  0  0  0  0  0  0  0  0  0
    1.6840    6.7390   20.7590 O   0  0  0  0  0  0  0  0  0  0  0  0
    3.1210    2.4230   17.4800 H   0  0  0  0  0  0  0  0  0  0  0  0
    1.8810    0.8370   18.9740 H   0  0  0  0  0  0  0  0  0  0  0  0
    0.6740    1.6800   20.9720 H   0  0  0  0  0  0  0  0  0  0  0  0
    0.6780    4.1290   21.5170 H   0  0  0  0  0  0  0  0  0  0  0  0
   -3.7500   12.9760   20.4630 S   0  0  0  0  0  0  0  0  0  0  0  0
   -3.9230   12.5900   21.8480 O   0  0  0  0  0  0  0  0  0  0  0  0
   -4.8750   13.0030   19.5520 O   0  0  0  0  0  0  0  0  0  0  0  0
   -1.1610   15.0860   23.4680 C   0  0  0  0  0  0  0  0  0  0  0  0
   -2.2750   14.9140   22.6800 C   0  0  0  0  0  0  0  0  0  0  0  0
   -2.0220   14.7540   21.3390 C   0  0  0  0  0  0  0  0  0  0  0  0
   -3.0450   14.5090   20.4010 N   0  0  0  0  0  0  0  0  0  0  0  0
   -0.8110   14.7560   20.7760 N   0  0  0  0  0  0  0  0  0  0  0  0
    0.2160   14.9050   21.6290 C   0  0  0  0  0  0  0  0  0  0  0  0
    0.0890   15.0810   22.9580 N   0  0  0  0  0  0  0  0  0  0  0  0
   -3.2770   14.9020   23.0840 H   0  0  0  0  0  0  0  0  0  0  0  0
   -2.7330   14.7210   19.4550 H   0  0  0  0  0  0  0  0  0  0  0  0
   -1.3030   15.2670   24.9490 C   0  0  0  0  0  0  0  0  0  0  0  0
   -1.2390   14.2990   25.4570 H   0  0  0  0  0  0  0  0  0  0  0  0
   -0.5080   15.9120   25.3400 H   0  0  0  0  0  0  0  0  0  0  0  0
   -2.2650   15.7360   25.1820 H   0  0  0  0  0  0  0  0  0  0  0  0
    1.6010   14.9000   21.0620 C   0  0  0  0  0  0  0  0  0  0  0  0
    1.6120   15.4270   20.1040 H   0  0  0  0  0  0  0  0  0  0  0  0
    1.9500   13.8740   20.9010 H   0  0  0  0  0  0  0  0  0  0  0  0
    2.2950   15.3940   21.7480 H   0  0  0  0  0  0  0  0  0  0  0  0
  1 36  1  0  0  0  0
  1  6  1  0  0  0  0
  2  1  2  0  0  0  0
  3  2  1  0  0  0  0
  3  4  2  0  0  0  0
  4  5  1  0  0  0  0
  5  6  2  0  0  0  0
  5  9  1  0  0  0  0
  6 10  1  0  0  0  0
  7  2  1  0  0  0  0
  8  3  1  0  0  0  0
 11  4  1  0  0  0  0
 12 13  2  0  0  0  0
 12 11  1  0  0  0  0
 14 11  1  0  0  0  0
 15 12  1  0  0  0  0
 15 18  1  0  0  0  0
 16 15  1  0  0  0  0
 17 15  1  0  0  0  0
 18 21  1  0  0  0  0
 18 20  1  0  0  0  0
 19 18  1  0  0  0  0
 21 30  1  0  0  0  0
 22 24  1  0  0  0  0
 22 21  1  0  0  0  0
 23 22  2  0  0  0  0
 24 29  1  0  0  0  0
 25 24  2  0  0  0  0
 25 26  1  0  0  0  0
 26 27  2  0  0  0  0
 27 28  1  0  0  0  0
 27 34  1  0  0  0  0
 28 35  1  0  0  0  0
 29 30  1  0  0  0  0
 29 28  2  0  0  0  0
 30 31  2  0  0  0  0
 32 25  1  0  0  0  0
 33 26  1  0  0  0  0
 36 37  2  0  0  0  0
 38 36  2  0  0  0  0
 39 48  1  0  0  0  0
 40 46  1  0  0  0  0
 40 39  1  0  0  0  0
 41 40  2  0  0  0  0
 42 36  1  0  0  0  0
 42 41  1  0  0  0  0
 43 41  1  0  0  0  0
 43 44  2  0  0  0  0
 44 45  1  0  0  0  0
 45 39  2  0  0  0  0
 47 42  1  0  0  0  0
 48 51  1  0  0  0  0
 48 50  1  0  0  0  0
 48 49  1  0  0  0  0
 52 44  1  0  0  0  0
 52 55  1  0  0  0  0
 53 52  1  0  0  0  0
 54 52  1  0  0  0  0
M  END
>  <MODEL>
27

>  <REMARK>
 VINA RESULT:    -7.591      3.541     10.027
 INTER + INTRA:         -10.688
 INTER:                  -9.833
 INTRA:                  -0.855
 UNBOUND:                 0.009
  Name = 
  8 active torsions:
  status: ('A' for Active; 'I' for Inactive)
    1  A    between atoms: C_1  and  C_2
    2  A    between atoms: N_5  and  S_6
    3  A    between atoms: S_6  and  C_9
    4  A    between atoms: C_12  and  N_13
    5  A    between atoms: C_14  and  C_16
    6  A    between atoms: C_16  and  C_17
    7  A    between atoms: C_17  and  N_18
    8  A    between atoms: C_32  and  C_33
                            x       y       z     vdW  Elec       q    Type
                         _______ _______ _______ _____ _____    ______ ____

>  <TORSDO>
F 8

$$$$
=
 OpenBabel07192307433D

 55 58  0  0  0  0  0  0  0  0999 V2000
    1.1280    8.8150   20.0680 C   0  0  0  0  0  0  0  0  0  0  0  0
    1.6490    8.8130   18.7740 C   0  0  0  0  0  0  0  0  0  0  0  0
    2.2770    7.6650   18.2820 C   0  0  0  0  0  0  0  0  0  0  0  0
    2.4070    6.5250   19.0830 C   0  0  0  0  0  0  0  0  0  0  0  0
    1.9070    6.5550   20.3930 C   0  0  0  0  0  0  0  0  0  0  0  0
    1.2680    7.6960   20.8900 C   0  0  0  0  0  0  0  0  0  0  0  0
    1.5650    9.6880   18.1330 H   0  0  0  0  0  0  0  0  0  0  0  0
    2.6580    7.6960   17.2640 H   0  0  0  0  0  0  0  0  0  0  0  0
    2.0020    5.6890   21.0460 H   0  0  0  0  0  0  0  0  0  0  0  0
    0.8890    7.6980   21.9100 H   0  0  0  0  0  0  0  0  0  0  0  0
    3.0170    5.3270   18.6590 N   0  0  0  0  0  0  0  0  0  0  0  0
    2.4720    4.3460   17.8480 C   0  0  0  0  0  0  0  0  0  0  0  0
    1.3460    4.3440   17.3630 O   0  0  0  0  0  0  0  0  0  0  0  0
    3.9790    5.1940   18.9540 H   0  0  0  0  0  0  0  0  0  0  0  0
    3.4200    3.1850   17.6170 C   0  0  0  0  0  0  0  0  0  0  0  0
    2.8170    2.3320   17.2830 H   0  0  0  0  0  0  0  0  0  0  0  0
    3.9050    2.8760   18.5470 H   0  0  0  0  0  0  0  0  0  0  0  0
    4.4550    3.5280   16.5510 C   0  0  0  0  0  0  0  0  0  0  0  0
    5.0340    2.6260   16.3170 H   0  0  0  0  0  0  0  0  0  0  0  0
    3.9590    3.8390   15.6240 H   0  0  0  0  0  0  0  0  0  0  0  0
    5.4140    4.5530   16.9370 N   0  0  0  0  0  0  0  0  0  0  0  0
    5.5580    5.7740   16.3330 C   0  0  0  0  0  0  0  0  0  0  0  0
    4.9880    6.2220   15.3530 O   0  0  0  0  0  0  0  0  0  0  0  0
    6.5550    6.5110   17.1050 C   0  0  0  0  0  0  0  0  0  0  0  0
    7.0970    7.7650   16.9050 C   0  0  0  0  0  0  0  0  0  0  0  0
    8.0420    8.2080   17.8380 C   0  0  0  0  0  0  0  0  0  0  0  0
    8.4120    7.4000   18.9330 C   0  0  0  0  0  0  0  0  0  0  0  0
    7.8460    6.1340   19.1130 C   0  0  0  0  0  0  0  0  0  0  0  0
    6.9200    5.7180   18.1770 C   0  0  0  0  0  0  0  0  0  0  0  0
    6.1550    4.4760   18.0880 C   0  0  0  0  0  0  0  0  0  0  0  0
    6.1860    3.5980   18.9300 O   0  0  0  0  0  0  0  0  0  0  0  0
    6.8050    8.3750   16.0580 H   0  0  0  0  0  0  0  0  0  0  0  0
    8.4980    9.1890   17.7180 H   0  0  0  0  0  0  0  0  0  0  0  0
    9.1490    7.7660   19.6450 H   0  0  0  0  0  0  0  0  0  0  0  0
    8.1220    5.4990   19.9510 H   0  0  0  0  0  0  0  0  0  0  0  0
    0.3050   10.2650   20.6940 S   0  0  0  0  0  0  0  0  0  0  0  0
    1.2600   11.0270   21.4700 O   0  0  0  0  0  0  0  0  0  0  0  0
   -0.9490    9.8310   21.2740 O   0  0  0  0  0  0  0  0  0  0  0  0
   -1.1330   14.4950   20.2240 C   0  0  0  0  0  0  0  0  0  0  0  0
   -1.2200   13.1260   20.1180 C   0  0  0  0  0  0  0  0  0  0  0  0
   -0.1830   12.5260   19.4450 C   0  0  0  0  0  0  0  0  0  0  0  0
   -0.0860   11.1280   19.2960 N   0  0  0  0  0  0  0  0  0  0  0  0
    0.8610   13.1650   18.9080 N   0  0  0  0  0  0  0  0  0  0  0  0
    0.8700   14.4960   19.0850 C   0  0  0  0  0  0  0  0  0  0  0  0
   -0.0950   15.1910   19.7160 N   0  0  0  0  0  0  0  0  0  0  0  0
   -2.0400   12.5610   20.5350 H   0  0  0  0  0  0  0  0  0  0  0  0
    0.5450   10.8830   18.5360 H   0  0  0  0  0  0  0  0  0  0  0  0
   -2.2000   15.2670   20.9400 C   0  0  0  0  0  0  0  0  0  0  0  0
   -2.1640   15.0560   22.0130 H   0  0  0  0  0  0  0  0  0  0  0  0
   -2.0630   16.3440   20.7970 H   0  0  0  0  0  0  0  0  0  0  0  0
   -3.1880   14.9970   20.5490 H   0  0  0  0  0  0  0  0  0  0  0  0
    2.0220   15.2670   18.5200 C   0  0  0  0  0  0  0  0  0  0  0  0
    2.3690   14.7940   17.5980 H   0  0  0  0  0  0  0  0  0  0  0  0
    2.8540   15.2980   19.2320 H   0  0  0  0  0  0  0  0  0  0  0  0
    1.7200   16.2960   18.3020 H   0  0  0  0  0  0  0  0  0  0  0  0
  1 36  1  0  0  0  0
  1  6  1  0  0  0  0
  2  1  2  0  0  0  0
  3  2  1  0  0  0  0
  3  4  2  0  0  0  0
  4  5  1  0  0  0  0
  5  6  2  0  0  0  0
  5  9  1  0  0  0  0
  6 10  1  0  0  0  0
  7  2  1  0  0  0  0
  8  3  1  0  0  0  0
 11 14  1  0  0  0  0
 11  4  1  0  0  0  0
 12 11  1  0  0  0  0
 13 12  2  0  0  0  0
 15 12  1  0  0  0  0
 15 17  1  0  0  0  0
 16 15  1  0  0  0  0
 18 21  1  0  0  0  0
 18 15  1  0  0  0  0
 19 18  1  0  0  0  0
 20 18  1  0  0  0  0
 21 30  1  0  0  0  0
 22 21  1  0  0  0  0
 22 24  1  0  0  0  0
 23 22  2  0  0  0  0
 24 29  1  0  0  0  0
 25 24  2  0  0  0  0
 25 26  1  0  0  0  0
 26 27  2  0  0  0  0
 27 28  1  0  0  0  0
 27 34  1  0  0  0  0
 28 35  1  0  0  0  0
 29 28  2  0  0  0  0
 30 29  1  0  0  0  0
 30 31  2  0  0  0  0
 32 25  1  0  0  0  0
 33 26  1  0  0  0  0
 36 38  2  0  0  0  0
 36 37  2  0  0  0  0
 39 48  1  0  0  0  0
 40 39  1  0  0  0  0
 40 46  1  0  0  0  0
 41 40  2  0  0  0  0
 42 41  1  0  0  0  0
 42 36  1  0  0  0  0
 43 44  2  0  0  0  0
 43 41  1  0  0  0  0
 44 45  1  0  0  0  0
 45 39  2  0  0  0  0
 47 42  1  0  0  0  0
 48 49  1  0  0  0  0
 50 48  1  0  0  0  0
 51 48  1  0  0  0  0
 52 44  1  0  0  0  0
 52 54  1  0  0  0  0
 53 52  1  0  0  0  0
 55 52  1  0  0  0  0
M  END
>  <MODEL>
28

>  <REMARK>
 VINA RESULT:    -7.576      2.864      9.447
 INTER + INTRA:         -10.666
 INTER:                  -9.926
 INTRA:                  -0.740
 UNBOUND:                 0.009
  Name = 
  8 active torsions:
  status: ('A' for Active; 'I' for Inactive)
    1  A    between atoms: C_1  and  C_2
    2  A    between atoms: N_5  and  S_6
    3  A    between atoms: S_6  and  C_9
    4  A    between atoms: C_12  and  N_13
    5  A    between atoms: C_14  and  C_16
    6  A    between atoms: C_16  and  C_17
    7  A    between atoms: C_17  and  N_18
    8  A    between atoms: C_32  and  C_33
                            x       y       z     vdW  Elec       q    Type
                         _______ _______ _______ _____ _____    ______ ____

>  <TORSDO>
F 8

$$$$
=
 OpenBabel07192307433D

 55 58  0  0  0  0  0  0  0  0999 V2000
    2.3040    5.7200   19.0560 C   0  0  0  0  0  0  0  0  0  0  0  0
    1.9450    5.8200   20.4000 C   0  0  0  0  0  0  0  0  0  0  0  0
    1.5800    7.0610   20.9300 C   0  0  0  0  0  0  0  0  0  0  0  0
    1.5930    8.2090   20.1300 C   0  0  0  0  0  0  0  0  0  0  0  0
    1.9880    8.0970   18.7880 C   0  0  0  0  0  0  0  0  0  0  0  0
    2.3450    6.8580   18.2480 C   0  0  0  0  0  0  0  0  0  0  0  0
    1.9310    4.9430   21.0450 H   0  0  0  0  0  0  0  0  0  0  0  0
    1.2920    7.0970   21.9780 H   0  0  0  0  0  0  0  0  0  0  0  0
    2.0200    8.9720   18.1430 H   0  0  0  0  0  0  0  0  0  0  0  0
    2.6500    6.7930   17.2060 H   0  0  0  0  0  0  0  0  0  0  0  0
    1.2300    9.4930   20.5840 N   0  0  0  0  0  0  0  0  0  0  0  0
    0.7280   10.5410   19.8330 C   0  0  0  0  0  0  0  0  0  0  0  0
    0.5200   10.5380   18.6240 O   0  0  0  0  0  0  0  0  0  0  0  0
    1.3130    9.6460   21.5840 H   0  0  0  0  0  0  0  0  0  0  0  0
    0.4670   11.7840   20.6620 C   0  0  0  0  0  0  0  0  0  0  0  0
    1.1900   11.7850   21.4860 H   0  0  0  0  0  0  0  0  0  0  0  0
   -0.5260   11.7540   21.1210 H   0  0  0  0  0  0  0  0  0  0  0  0
    0.6410   13.0460   19.8260 C   0  0  0  0  0  0  0  0  0  0  0  0
    0.2250   12.8700   18.8260 H   0  0  0  0  0  0  0  0  0  0  0  0
    0.0760   13.8760   20.2660 H   0  0  0  0  0  0  0  0  0  0  0  0
    2.0210   13.4690   19.6350 N   0  0  0  0  0  0  0  0  0  0  0  0
    2.6880   13.4890   18.4400 C   0  0  0  0  0  0  0  0  0  0  0  0
    2.3140   13.1180   17.3410 O   0  0  0  0  0  0  0  0  0  0  0  0
    4.0000   14.0780   18.6990 C   0  0  0  0  0  0  0  0  0  0  0  0
    5.0710   14.2900   17.8530 C   0  0  0  0  0  0  0  0  0  0  0  0
    6.2080   14.8930   18.4030 C   0  0  0  0  0  0  0  0  0  0  0  0
    6.2440   15.2670   19.7620 C   0  0  0  0  0  0  0  0  0  0  0  0
    5.1440   15.0420   20.5970 C   0  0  0  0  0  0  0  0  0  0  0  0
    4.0360   14.4420   20.0320 C   0  0  0  0  0  0  0  0  0  0  0  0
    2.7470   14.0860   20.6220 C   0  0  0  0  0  0  0  0  0  0  0  0
    2.4290   14.3500   21.7650 O   0  0  0  0  0  0  0  0  0  0  0  0
    5.0310   13.9960   16.8110 H   0  0  0  0  0  0  0  0  0  0  0  0
    7.0780   15.0760   17.7750 H   0  0  0  0  0  0  0  0  0  0  0  0
    7.1400   15.7330   20.1670 H   0  0  0  0  0  0  0  0  0  0  0  0
    5.1560   15.3230   21.6470 H   0  0  0  0  0  0  0  0  0  0  0  0
    2.7460    4.1390   18.3680 S   0  0  0  0  0  0  0  0  0  0  0  0
    2.5430    4.1960   16.9360 O   0  0  0  0  0  0  0  0  0  0  0  0
    2.0990    3.1230   19.1730 O   0  0  0  0  0  0  0  0  0  0  0  0
    6.2580    4.5840   15.6000 C   0  0  0  0  0  0  0  0  0  0  0  0
    5.4360    3.9190   16.4810 C   0  0  0  0  0  0  0  0  0  0  0  0
    5.2570    4.5380   17.6940 C   0  0  0  0  0  0  0  0  0  0  0  0
    4.4000    4.0210   18.6880 N   0  0  0  0  0  0  0  0  0  0  0  0
    5.8090    5.6990   18.0570 N   0  0  0  0  0  0  0  0  0  0  0  0
    6.5740    6.2860   17.1230 C   0  0  0  0  0  0  0  0  0  0  0  0
    6.8300    5.7680   15.9060 N   0  0  0  0  0  0  0  0  0  0  0  0
    4.9630    2.9790   16.2370 H   0  0  0  0  0  0  0  0  0  0  0  0
    4.6180    4.4170   19.6000 H   0  0  0  0  0  0  0  0  0  0  0  0
    6.5300    4.0140   14.2420 C   0  0  0  0  0  0  0  0  0  0  0  0
    7.4950    4.3720   13.8680 H   0  0  0  0  0  0  0  0  0  0  0  0
    6.5610    2.9200   14.2780 H   0  0  0  0  0  0  0  0  0  0  0  0
    5.7390    4.3070   13.5430 H   0  0  0  0  0  0  0  0  0  0  0  0
    7.2080    7.5980   17.4620 C   0  0  0  0  0  0  0  0  0  0  0  0
    8.2790    7.4590   17.6340 H   0  0  0  0  0  0  0  0  0  0  0  0
    6.7610    8.0220   18.3680 H   0  0  0  0  0  0  0  0  0  0  0  0
    7.0680    8.3120   16.6450 H   0  0  0  0  0  0  0  0  0  0  0  0
  1  2  1  0  0  0  0
  2  3  2  0  0  0  0
  2  7  1  0  0  0  0
  3  8  1  0  0  0  0
  4 11  1  0  0  0  0
  4  3  1  0  0  0  0
  5  4  2  0  0  0  0
  6  5  1  0  0  0  0
  6  1  2  0  0  0  0
  9  5  1  0  0  0  0
 10  6  1  0  0  0  0
 11 14  1  0  0  0  0
 12 11  1  0  0  0  0
 12 15  1  0  0  0  0
 13 12  2  0  0  0  0
 15 17  1  0  0  0  0
 15 16  1  0  0  0  0
 18 20  1  0  0  0  0
 18 15  1  0  0  0  0
 19 18  1  0  0  0  0
 21 18  1  0  0  0  0
 21 30  1  0  0  0  0
 22 24  1  0  0  0  0
 22 21  1  0  0  0  0
 23 22  2  0  0  0  0
 24 29  1  0  0  0  0
 25 26  1  0  0  0  0
 25 24  2  0  0  0  0
 26 27  2  0  0  0  0
 27 34  1  0  0  0  0
 27 28  1  0  0  0  0
 28 35  1  0  0  0  0
 29 28  2  0  0  0  0
 29 30  1  0  0  0  0
 30 31  2  0  0  0  0
 32 25  1  0  0  0  0
 33 26  1  0  0  0  0
 36 42  1  0  0  0  0
 36  1  1  0  0  0  0
 36 38  2  0  0  0  0
 37 36  2  0  0  0  0
 39 45  2  0  0  0  0
 39 40  1  0  0  0  0
 40 41  2  0  0  0  0
 41 43  1  0  0  0  0
 41 42  1  0  0  0  0
 42 47  1  0  0  0  0
 44 52  1  0  0  0  0
 44 43  2  0  0  0  0
 45 44  1  0  0  0  0
 46 40  1  0  0  0  0
 48 50  1  0  0  0  0
 48 39  1  0  0  0  0
 49 48  1  0  0  0  0
 51 48  1  0  0  0  0
 52 53  1  0  0  0  0
 52 54  1  0  0  0  0
 55 52  1  0  0  0  0
M  END
>  <MODEL>
29

>  <REMARK>
 VINA RESULT:    -7.499      3.111      4.688
 INTER + INTRA:         -10.558
 INTER:                 -10.103
 INTRA:                  -0.456
 UNBOUND:                 0.009
  Name = 
  8 active torsions:
  status: ('A' for Active; 'I' for Inactive)
    1  A    between atoms: C_1  and  C_2
    2  A    between atoms: N_5  and  S_6
    3  A    between atoms: S_6  and  C_9
    4  A    between atoms: C_12  and  N_13
    5  A    between atoms: C_14  and  C_16
    6  A    between atoms: C_16  and  C_17
    7  A    between atoms: C_17  and  N_18
    8  A    between atoms: C_32  and  C_33
                            x       y       z     vdW  Elec       q    Type
                         _______ _______ _______ _____ _____    ______ ____

>  <TORSDO>
F 8

$$$$
=
 OpenBabel07192307433D

 55 58  0  0  0  0  0  0  0  0999 V2000
    1.9820    7.1170   19.7000 C   0  0  0  0  0  0  0  0  0  0  0  0
    1.6060    7.1910   21.0410 C   0  0  0  0  0  0  0  0  0  0  0  0
    1.0350    8.3680   21.5370 C   0  0  0  0  0  0  0  0  0  0  0  0
    0.8580    9.4790   20.7060 C   0  0  0  0  0  0  0  0  0  0  0  0
    1.2720    9.3990   19.3680 C   0  0  0  0  0  0  0  0  0  0  0  0
    1.8350    8.2230   18.8610 C   0  0  0  0  0  0  0  0  0  0  0  0
    1.7370    6.3430   21.7100 H   0  0  0  0  0  0  0  0  0  0  0  0
    0.7410    8.3820   22.5840 H   0  0  0  0  0  0  0  0  0  0  0  0
    1.1590   10.2490   18.6980 H   0  0  0  0  0  0  0  0  0  0  0  0
    2.1500    8.1830   17.8210 H   0  0  0  0  0  0  0  0  0  0  0  0
    0.2830   10.6960   21.1250 N   0  0  0  0  0  0  0  0  0  0  0  0
   -0.5950   10.8930   22.1770 C   0  0  0  0  0  0  0  0  0  0  0  0
   -1.0410   10.0300   22.9270 O   0  0  0  0  0  0  0  0  0  0  0  0
    0.5820   11.5220   20.6180 H   0  0  0  0  0  0  0  0  0  0  0  0
   -1.0190   12.3410   22.3220 C   0  0  0  0  0  0  0  0  0  0  0  0
   -0.2460   12.8510   22.9100 H   0  0  0  0  0  0  0  0  0  0  0  0
   -1.9490   12.4280   22.8910 H   0  0  0  0  0  0  0  0  0  0  0  0
   -1.1500   13.0120   20.9590 C   0  0  0  0  0  0  0  0  0  0  0  0
   -1.5240   12.2770   20.2360 H   0  0  0  0  0  0  0  0  0  0  0  0
   -1.8890   13.8210   21.0030 H   0  0  0  0  0  0  0  0  0  0  0  0
    0.0910   13.5410   20.4140 N   0  0  0  0  0  0  0  0  0  0  0  0
    0.9930   14.3140   21.0960 C   0  0  0  0  0  0  0  0  0  0  0  0
    0.9270   14.7590   22.2290 O   0  0  0  0  0  0  0  0  0  0  0  0
    2.1280   14.5260   20.2020 C   0  0  0  0  0  0  0  0  0  0  0  0
    3.2830   15.2640   20.3760 C   0  0  0  0  0  0  0  0  0  0  0  0
    4.2030   15.2660   19.3230 C   0  0  0  0  0  0  0  0  0  0  0  0
    3.9530   14.5390   18.1400 C   0  0  0  0  0  0  0  0  0  0  0  0
    2.7760   13.7990   17.9900 C   0  0  0  0  0  0  0  0  0  0  0  0
    1.8810   13.8160   19.0420 C   0  0  0  0  0  0  0  0  0  0  0  0
    0.5900   13.1510   19.1980 C   0  0  0  0  0  0  0  0  0  0  0  0
    0.1210   12.3800   18.3820 O   0  0  0  0  0  0  0  0  0  0  0  0
    3.4620   15.8190   21.2900 H   0  0  0  0  0  0  0  0  0  0  0  0
    5.1260   15.8370   19.4150 H   0  0  0  0  0  0  0  0  0  0  0  0
    4.6840   14.5570   17.3350 H   0  0  0  0  0  0  0  0  0  0  0  0
    2.5680   13.2350   17.0840 H   0  0  0  0  0  0  0  0  0  0  0  0
    2.6870    5.6150   19.0550 S   0  0  0  0  0  0  0  0  0  0  0  0
    1.6690    4.5870   19.0880 O   0  0  0  0  0  0  0  0  0  0  0  0
    3.9630    5.4210   19.7130 O   0  0  0  0  0  0  0  0  0  0  0  0
    6.5880    6.7360   17.1280 C   0  0  0  0  0  0  0  0  0  0  0  0
    5.2840    6.9350   17.5190 C   0  0  0  0  0  0  0  0  0  0  0  0
    4.3940    5.9810   17.0880 C   0  0  0  0  0  0  0  0  0  0  0  0
    3.0300    6.0020   17.4480 N   0  0  0  0  0  0  0  0  0  0  0  0
    4.7030    4.9160   16.3430 N   0  0  0  0  0  0  0  0  0  0  0  0
    6.0040    4.7940   16.0330 C   0  0  0  0  0  0  0  0  0  0  0  0
    6.9620    5.6700   16.3890 N   0  0  0  0  0  0  0  0  0  0  0  0
    4.9800    7.7770   18.1230 H   0  0  0  0  0  0  0  0  0  0  0  0
    2.4760    5.4280   16.8150 H   0  0  0  0  0  0  0  0  0  0  0  0
    7.6560    7.7040   17.5370 C   0  0  0  0  0  0  0  0  0  0  0  0
    7.9540    7.5230   18.5740 H   0  0  0  0  0  0  0  0  0  0  0  0
    8.5430    7.5970   16.9020 H   0  0  0  0  0  0  0  0  0  0  0  0
    7.2920    8.7330   17.4380 H   0  0  0  0  0  0  0  0  0  0  0  0
    6.4180    3.6120   15.2130 C   0  0  0  0  0  0  0  0  0  0  0  0
    5.7530    2.7680   15.4160 H   0  0  0  0  0  0  0  0  0  0  0  0
    7.4450    3.3150   15.4520 H   0  0  0  0  0  0  0  0  0  0  0  0
    6.3710    3.8540   14.1460 H   0  0  0  0  0  0  0  0  0  0  0  0
  1  2  1  0  0  0  0
  2  3  2  0  0  0  0
  2  7  1  0  0  0  0
  3  8  1  0  0  0  0
  4 11  1  0  0  0  0
  4  3  1  0  0  0  0
  5  4  2  0  0  0  0
  6  5  1  0  0  0  0
  6  1  2  0  0  0  0
  9  5  1  0  0  0  0
 10  6  1  0  0  0  0
 11 12  1  0  0  0  0
 12 15  1  0  0  0  0
 12 13  2  0  0  0  0
 14 11  1  0  0  0  0
 15 17  1  0  0  0  0
 15 16  1  0  0  0  0
 18 20  1  0  0  0  0
 18 15  1  0  0  0  0
 19 18  1  0  0  0  0
 21 18  1  0  0  0  0
 21 22  1  0  0  0  0
 22 23  2  0  0  0  0
 24 25  1  0  0  0  0
 24 22  1  0  0  0  0
 25 32  1  0  0  0  0
 26 33  1  0  0  0  0
 26 25  2  0  0  0  0
 27 26  1  0  0  0  0
 28 27  2  0  0  0  0
 28 29  1  0  0  0  0
 29 30  1  0  0  0  0
 29 24  2  0  0  0  0
 30 21  1  0  0  0  0
 31 30  2  0  0  0  0
 34 27  1  0  0  0  0
 35 28  1  0  0  0  0
 36 37  2  0  0  0  0
 36  1  1  0  0  0  0
 36 38  2  0  0  0  0
 39 40  1  0  0  0  0
 39 48  1  0  0  0  0
 40 46  1  0  0  0  0
 41 42  1  0  0  0  0
 41 40  2  0  0  0  0
 42 36  1  0  0  0  0
 43 41  1  0  0  0  0
 44 43  2  0  0  0  0
 44 45  1  0  0  0  0
 45 39  2  0  0  0  0
 47 42  1  0  0  0  0
 48 49  1  0  0  0  0
 50 48  1  0  0  0  0
 51 48  1  0  0  0  0
 52 53  1  0  0  0  0
 52 54  1  0  0  0  0
 52 44  1  0  0  0  0
 55 52  1  0  0  0  0
M  END
>  <MODEL>
30

>  <REMARK>
 VINA RESULT:    -7.484      2.763      4.239
 INTER + INTRA:         -10.537
 INTER:                 -10.336
 INTRA:                  -0.201
 UNBOUND:                 0.009
  Name = 
  8 active torsions:
  status: ('A' for Active; 'I' for Inactive)
    1  A    between atoms: C_1  and  C_2
    2  A    between atoms: N_5  and  S_6
    3  A    between atoms: S_6  and  C_9
    4  A    between atoms: C_12  and  N_13
    5  A    between atoms: C_14  and  C_16
    6  A    between atoms: C_16  and  C_17
    7  A    between atoms: C_17  and  N_18
    8  A    between atoms: C_32  and  C_33
                            x       y       z     vdW  Elec       q    Type
                         _______ _______ _______ _____ _____    ______ ____

>  <TORSDO>
F 8

$$$$
=
 OpenBabel07192307433D

 55 58  0  0  0  0  0  0  0  0999 V2000
    5.8170    5.5110   17.4870 C   0  0  0  0  0  0  0  0  0  0  0  0
    7.0840    5.6290   18.0590 C   0  0  0  0  0  0  0  0  0  0  0  0
    7.7280    6.8710   18.0670 C   0  0  0  0  0  0  0  0  0  0  0  0
    7.1220    7.9910   17.4880 C   0  0  0  0  0  0  0  0  0  0  0  0
    5.8630    7.8480   16.8870 C   0  0  0  0  0  0  0  0  0  0  0  0
    5.2070    6.6120   16.8830 C   0  0  0  0  0  0  0  0  0  0  0  0
    7.5790    4.7720   18.5120 H   0  0  0  0  0  0  0  0  0  0  0  0
    8.7080    6.9260   18.5350 H   0  0  0  0  0  0  0  0  0  0  0  0
    5.3700    8.6970   16.4180 H   0  0  0  0  0  0  0  0  0  0  0  0
    4.2310    6.5230   16.4110 H   0  0  0  0  0  0  0  0  0  0  0  0
    7.7000    9.2770   17.4630 N   0  0  0  0  0  0  0  0  0  0  0  0
    8.6380    9.7950   18.3390 C   0  0  0  0  0  0  0  0  0  0  0  0
    9.1260    9.2210   19.3080 O   0  0  0  0  0  0  0  0  0  0  0  0
    7.4200    9.8710   16.6900 H   0  0  0  0  0  0  0  0  0  0  0  0
    9.0180   11.2250   18.0110 C   0  0  0  0  0  0  0  0  0  0  0  0
    8.0870   11.7920   17.8920 H   0  0  0  0  0  0  0  0  0  0  0  0
    9.5430   11.2880   17.0530 H   0  0  0  0  0  0  0  0  0  0  0  0
    9.8520   11.8400   19.1290 C   0  0  0  0  0  0  0  0  0  0  0  0
   10.3630   11.0370   19.6740 H   0  0  0  0  0  0  0  0  0  0  0  0
   10.6310   12.4880   18.7110 H   0  0  0  0  0  0  0  0  0  0  0  0
    9.0930   12.5960   20.1150 N   0  0  0  0  0  0  0  0  0  0  0  0
    8.4340   13.7730   19.8780 C   0  0  0  0  0  0  0  0  0  0  0  0
    8.3920   14.4430   18.8610 O   0  0  0  0  0  0  0  0  0  0  0  0
    7.7290   14.1160   21.1100 C   0  0  0  0  0  0  0  0  0  0  0  0
    6.9550   15.2160   21.4250 C   0  0  0  0  0  0  0  0  0  0  0  0
    6.3960   15.2580   22.7080 C   0  0  0  0  0  0  0  0  0  0  0  0
    6.6180   14.2130   23.6280 C   0  0  0  0  0  0  0  0  0  0  0  0
    7.4050   13.1090   23.2840 C   0  0  0  0  0  0  0  0  0  0  0  0
    7.9490   13.0930   22.0140 C   0  0  0  0  0  0  0  0  0  0  0  0
    8.7930   12.0980   21.3570 C   0  0  0  0  0  0  0  0  0  0  0  0
    9.1020   11.0340   21.8580 O   0  0  0  0  0  0  0  0  0  0  0  0
    6.7930   16.0130   20.7080 H   0  0  0  0  0  0  0  0  0  0  0  0
    5.7820   16.1070   23.0000 H   0  0  0  0  0  0  0  0  0  0  0  0
    6.1730   14.2680   24.6200 H   0  0  0  0  0  0  0  0  0  0  0  0
    7.5870   12.2960   23.9820 H   0  0  0  0  0  0  0  0  0  0  0  0
    4.9810    3.9400   17.4930 S   0  0  0  0  0  0  0  0  0  0  0  0
    5.2520    3.2880   18.7570 O   0  0  0  0  0  0  0  0  0  0  0  0
    5.2850    3.2850   16.2370 O   0  0  0  0  0  0  0  0  0  0  0  0
    1.8130    3.7050   20.6710 C   0  0  0  0  0  0  0  0  0  0  0  0
    2.3940    3.4060   19.4610 C   0  0  0  0  0  0  0  0  0  0  0  0
    2.6970    4.4900   18.6740 C   0  0  0  0  0  0  0  0  0  0  0  0
    3.3480    4.3650   17.4300 N   0  0  0  0  0  0  0  0  0  0  0  0
    2.4700    5.7660   18.9980 N   0  0  0  0  0  0  0  0  0  0  0  0
    1.9230    5.9610   20.2090 C   0  0  0  0  0  0  0  0  0  0  0  0
    1.5750    4.9750   21.0590 N   0  0  0  0  0  0  0  0  0  0  0  0
    2.6020    2.3920   19.1500 H   0  0  0  0  0  0  0  0  0  0  0  0
    3.2170    5.2000   16.8620 H   0  0  0  0  0  0  0  0  0  0  0  0
    1.4400    2.6090   21.6220 C   0  0  0  0  0  0  0  0  0  0  0  0
    0.4050    2.2970   21.4520 H   0  0  0  0  0  0  0  0  0  0  0  0
    2.0880    1.7370   21.4860 H   0  0  0  0  0  0  0  0  0  0  0  0
    1.5490    2.9530   22.6570 H   0  0  0  0  0  0  0  0  0  0  0  0
    1.6580    7.3690   20.6380 C   0  0  0  0  0  0  0  0  0  0  0  0
    1.7170    7.4430   21.7270 H   0  0  0  0  0  0  0  0  0  0  0  0
    0.6610    7.6910   20.3200 H   0  0  0  0  0  0  0  0  0  0  0  0
    2.3940    8.0470   20.1950 H   0  0  0  0  0  0  0  0  0  0  0  0
  1 36  1  0  0  0  0
  1  2  1  0  0  0  0
  2  3  2  0  0  0  0
  2  7  1  0  0  0  0
  3  8  1  0  0  0  0
  4  3  1  0  0  0  0
  5  4  2  0  0  0  0
  6  5  1  0  0  0  0
  6  1  2  0  0  0  0
  9  5  1  0  0  0  0
 10  6  1  0  0  0  0
 11  4  1  0  0  0  0
 11 12  1  0  0  0  0
 12 13  2  0  0  0  0
 14 11  1  0  0  0  0
 15 12  1  0  0  0  0
 15 18  1  0  0  0  0
 16 15  1  0  0  0  0
 17 15  1  0  0  0  0
 18 19  1  0  0  0  0
 18 21  1  0  0  0  0
 20 18  1  0  0  0  0
 21 30  1  0  0  0  0
 22 21  1  0  0  0  0
 22 24  1  0  0  0  0
 23 22  2  0  0  0  0
 24 25  2  0  0  0  0
 24 29  1  0  0  0  0
 25 26  1  0  0  0  0
 26 33  1  0  0  0  0
 26 27  2  0  0  0  0
 27 34  1  0  0  0  0
 28 27  1  0  0  0  0
 28 35  1  0  0  0  0
 29 28  2  0  0  0  0
 30 31  2  0  0  0  0
 30 29  1  0  0  0  0
 32 25  1  0  0  0  0
 36 37  2  0  0  0  0
 38 36  2  0  0  0  0
 39 45  2  0  0  0  0
 39 48  1  0  0  0  0
 40 39  1  0  0  0  0
 41 43  1  0  0  0  0
 41 40  2  0  0  0  0
 42 36  1  0  0  0  0
 42 41  1  0  0  0  0
 43 44  2  0  0  0  0
 44 52  1  0  0  0  0
 44 45  1  0  0  0  0
 46 40  1  0  0  0  0
 47 42  1  0  0  0  0
 48 51  1  0  0  0  0
 49 48  1  0  0  0  0
 50 48  1  0  0  0  0
 52 53  1  0  0  0  0
 54 52  1  0  0  0  0
 55 52  1  0  0  0  0
M  END
>  <MODEL>
31

>  <REMARK>
 VINA RESULT:    -7.475      5.219      8.272
 INTER + INTRA:         -10.525
 INTER:                 -10.097
 INTRA:                  -0.428
 UNBOUND:                 0.009
  Name = 
  8 active torsions:
  status: ('A' for Active; 'I' for Inactive)
    1  A    between atoms: C_1  and  C_2
    2  A    between atoms: N_5  and  S_6
    3  A    between atoms: S_6  and  C_9
    4  A    between atoms: C_12  and  N_13
    5  A    between atoms: C_14  and  C_16
    6  A    between atoms: C_16  and  C_17
    7  A    between atoms: C_17  and  N_18
    8  A    between atoms: C_32  and  C_33
                            x       y       z     vdW  Elec       q    Type
                         _______ _______ _______ _____ _____    ______ ____

>  <TORSDO>
F 8

$$$$
=
 OpenBabel07192307433D

 55 58  0  0  0  0  0  0  0  0999 V2000
    3.6790    6.6730   18.0560 C   0  0  0  0  0  0  0  0  0  0  0  0
    3.3450    6.2490   19.3420 C   0  0  0  0  0  0  0  0  0  0  0  0
    2.3510    6.9230   20.0590 C   0  0  0  0  0  0  0  0  0  0  0  0
    1.7030    8.0330   19.5060 C   0  0  0  0  0  0  0  0  0  0  0  0
    2.0740    8.4670   18.2250 C   0  0  0  0  0  0  0  0  0  0  0  0
    3.0600    7.7940   17.4970 C   0  0  0  0  0  0  0  0  0  0  0  0
    3.8370    5.3910   19.7960 H   0  0  0  0  0  0  0  0  0  0  0  0
    2.1080    6.5530   21.0520 H   0  0  0  0  0  0  0  0  0  0  0  0
    1.5980    9.3350   17.7720 H   0  0  0  0  0  0  0  0  0  0  0  0
    3.3330    8.1480   16.5060 H   0  0  0  0  0  0  0  0  0  0  0  0
    0.6860    8.7600   20.1580 N   0  0  0  0  0  0  0  0  0  0  0  0
    0.7350    9.3290   21.4190 C   0  0  0  0  0  0  0  0  0  0  0  0
    1.6780    9.2870   22.2020 O   0  0  0  0  0  0  0  0  0  0  0  0
   -0.1600    8.9120   19.6200 H   0  0  0  0  0  0  0  0  0  0  0  0
   -0.5590   10.0220   21.7980 C   0  0  0  0  0  0  0  0  0  0  0  0
   -0.3620   10.6090   22.7040 H   0  0  0  0  0  0  0  0  0  0  0  0
   -1.3360    9.2980   22.0610 H   0  0  0  0  0  0  0  0  0  0  0  0
   -1.0320   10.9470   20.6830 C   0  0  0  0  0  0  0  0  0  0  0  0
   -1.2380   10.3470   19.7880 H   0  0  0  0  0  0  0  0  0  0  0  0
   -1.9730   11.4340   20.9650 H   0  0  0  0  0  0  0  0  0  0  0  0
   -0.0750   11.9700   20.2880 N   0  0  0  0  0  0  0  0  0  0  0  0
    0.4040   12.9650   21.0970 C   0  0  0  0  0  0  0  0  0  0  0  0
    0.1020   13.2380   22.2460 O   0  0  0  0  0  0  0  0  0  0  0  0
    1.4090   13.6900   20.3250 C   0  0  0  0  0  0  0  0  0  0  0  0
    2.1620   14.8020   20.6500 C   0  0  0  0  0  0  0  0  0  0  0  0
    3.0640   15.2660   19.6870 C   0  0  0  0  0  0  0  0  0  0  0  0
    3.1920   14.6160   18.4420 C   0  0  0  0  0  0  0  0  0  0  0  0
    2.4190   13.4910   18.1370 C   0  0  0  0  0  0  0  0  0  0  0  0
    1.5330   13.0550   19.1030 C   0  0  0  0  0  0  0  0  0  0  0  0
    0.6060   11.9250   19.0980 C   0  0  0  0  0  0  0  0  0  0  0  0
    0.5300   11.1140   18.1950 O   0  0  0  0  0  0  0  0  0  0  0  0
    2.0530   15.2920   21.6110 H   0  0  0  0  0  0  0  0  0  0  0  0
    3.6760   16.1410   19.8990 H   0  0  0  0  0  0  0  0  0  0  0  0
    3.9000   14.9960   17.7080 H   0  0  0  0  0  0  0  0  0  0  0  0
    2.5040   12.9800   17.1820 H   0  0  0  0  0  0  0  0  0  0  0  0
    4.9250    5.8060   17.1280 S   0  0  0  0  0  0  0  0  0  0  0  0
    6.0520    5.5610   18.0030 O   0  0  0  0  0  0  0  0  0  0  0  0
    5.0960    6.5110   15.8730 O   0  0  0  0  0  0  0  0  0  0  0  0
    4.0540    2.2670   19.7540 C   0  0  0  0  0  0  0  0  0  0  0  0
    4.6330    2.9240   18.6930 C   0  0  0  0  0  0  0  0  0  0  0  0
    3.7550    3.5670   17.8560 C   0  0  0  0  0  0  0  0  0  0  0  0
    4.1850    4.3360   16.7540 N   0  0  0  0  0  0  0  0  0  0  0  0
    2.4270    3.5920   18.0010 N   0  0  0  0  0  0  0  0  0  0  0  0
    1.9570    2.9440   19.0790 C   0  0  0  0  0  0  0  0  0  0  0  0
    2.7210    2.2710   19.9610 N   0  0  0  0  0  0  0  0  0  0  0  0
    5.7010    2.9370   18.5300 H   0  0  0  0  0  0  0  0  0  0  0  0
    3.4280    4.4750   16.0880 H   0  0  0  0  0  0  0  0  0  0  0  0
    4.9060    1.5290   20.7430 C   0  0  0  0  0  0  0  0  0  0  0  0
    4.4940    1.6370   21.7510 H   0  0  0  0  0  0  0  0  0  0  0  0
    4.9480    0.4620   20.5010 H   0  0  0  0  0  0  0  0  0  0  0  0
    5.9290    1.9200   20.7260 H   0  0  0  0  0  0  0  0  0  0  0  0
    0.4790    2.9490   19.3080 C   0  0  0  0  0  0  0  0  0  0  0  0
    0.2680    3.0250   20.3780 H   0  0  0  0  0  0  0  0  0  0  0  0
    0.0240    2.0280   18.9260 H   0  0  0  0  0  0  0  0  0  0  0  0
    0.0160    3.7970   18.7930 H   0  0  0  0  0  0  0  0  0  0  0  0
  1  2  1  0  0  0  0
  2  7  1  0  0  0  0
  2  3  2  0  0  0  0
  3  8  1  0  0  0  0
  4  3  1  0  0  0  0
  4 11  1  0  0  0  0
  5  4  2  0  0  0  0
  6  1  2  0  0  0  0
  6  5  1  0  0  0  0
  9  5  1  0  0  0  0
 10  6  1  0  0  0  0
 11 12  1  0  0  0  0
 12 15  1  0  0  0  0
 12 13  2  0  0  0  0
 14 11  1  0  0  0  0
 15 17  1  0  0  0  0
 15 16  1  0  0  0  0
 18 20  1  0  0  0  0
 18 15  1  0  0  0  0
 19 18  1  0  0  0  0
 21 18  1  0  0  0  0
 21 22  1  0  0  0  0
 22 23  2  0  0  0  0
 24 25  1  0  0  0  0
 24 22  1  0  0  0  0
 25 32  1  0  0  0  0
 26 33  1  0  0  0  0
 26 25  2  0  0  0  0
 27 26  1  0  0  0  0
 28 27  2  0  0  0  0
 28 29  1  0  0  0  0
 29 24  2  0  0  0  0
 30 29  1  0  0  0  0
 30 21  1  0  0  0  0
 31 30  2  0  0  0  0
 34 27  1  0  0  0  0
 35 28  1  0  0  0  0
 36 37  2  0  0  0  0
 36  1  1  0  0  0  0
 38 36  2  0  0  0  0
 39 45  2  0  0  0  0
 39 48  1  0  0  0  0
 40 39  1  0  0  0  0
 41 43  1  0  0  0  0
 41 40  2  0  0  0  0
 42 36  1  0  0  0  0
 42 41  1  0  0  0  0
 43 44  2  0  0  0  0
 44 52  1  0  0  0  0
 44 45  1  0  0  0  0
 46 40  1  0  0  0  0
 47 42  1  0  0  0  0
 48 49  1  0  0  0  0
 50 48  1  0  0  0  0
 51 48  1  0  0  0  0
 52 53  1  0  0  0  0
 54 52  1  0  0  0  0
 55 52  1  0  0  0  0
M  END
>  <MODEL>
32

>  <REMARK>
 VINA RESULT:    -7.331      2.976      4.482
 INTER + INTRA:         -10.321
 INTER:                 -10.079
 INTRA:                  -0.242
 UNBOUND:                 0.009
  Name = 
  8 active torsions:
  status: ('A' for Active; 'I' for Inactive)
    1  A    between atoms: C_1  and  C_2
    2  A    between atoms: N_5  and  S_6
    3  A    between atoms: S_6  and  C_9
    4  A    between atoms: C_12  and  N_13
    5  A    between atoms: C_14  and  C_16
    6  A    between atoms: C_16  and  C_17
    7  A    between atoms: C_17  and  N_18
    8  A    between atoms: C_32  and  C_33
                            x       y       z     vdW  Elec       q    Type
                         _______ _______ _______ _____ _____    ______ ____

>  <TORSDO>
F 8

$$$$
