=
 OpenBabel07192307433D

 55 58  0  0  1  0  0  0  0  0999 V2000
   -1.2510   12.0030   21.8490 C   0  0  0  0  0  0  0  0  0  0  0  0
   -0.1170   11.2420   22.1580 C   0  0  0  0  0  0  0  0  0  0  0  0
    0.6180   10.6030   21.1530 C   0  0  0  0  0  0  0  0  0  0  0  0
    0.2470   10.7110   19.8010 C   0  0  0  0  0  0  0  0  0  0  0  0
   -0.9270   11.4250   19.5000 C   0  0  0  0  0  0  0  0  0  0  0  0
   -1.6510   12.0810   20.5080 C   0  0  0  0  0  0  0  0  0  0  0  0
    0.2120   11.1500   23.1930 H   0  0  0  0  0  0  0  0  0  0  0  0
    1.4960   10.0250   21.4370 H   0  0  0  0  0  0  0  0  0  0  0  0
   -2.5430   12.6480   20.2430 H   0  0  0  0  0  0  0  0  0  0  0  0
   -1.6810   13.9750   23.3750 C   0  0  0  0  0  0  0  0  0  0  0  0
   -2.4650   14.5770   24.3760 C   0  0  0  0  0  0  0  0  0  0  0  0
   -3.5550   13.9050   24.9270 C   0  0  0  0  0  0  0  0  0  0  0  0
   -3.8680   12.6330   24.4760 C   0  0  0  0  0  0  0  0  0  0  0  0
   -4.9150   11.9850   25.0030 F   0  0  0  0  0  0  0  0  0  0  0  0
   -3.1160   12.0210   23.4790 C   0  0  0  0  0  0  0  0  0  0  0  0
   -2.0140   12.6810   22.9070 C   0  0  0  0  0  0  0  0  0  0  0  0
   -2.2260   15.5770   24.7350 H   0  0  0  0  0  0  0  0  0  0  0  0
   -4.1580   14.3660   25.7020 H   0  0  0  0  0  0  0  0  0  0  0  0
   -3.4030   11.0270   23.1480 H   0  0  0  0  0  0  0  0  0  0  0  0
   -0.5150   14.7460   22.8100 C   0  0  0  0  0  0  0  0  0  0  0  0
   -0.8090   15.3160   21.9210 H   0  0  0  0  0  0  0  0  0  0  0  0
    0.2870   14.0610   22.5210 H   0  0  0  0  0  0  0  0  0  0  0  0
   -0.1350   15.4700   23.5390 H   0  0  0  0  0  0  0  0  0  0  0  0
   -1.4710   11.5360   18.1280 C   0  0  0  0  0  0  0  0  0  0  0  0
   -1.1340   12.6640   17.4360 N   0  0  0  0  0  0  0  0  0  0  0  0
   -2.1370   10.6390   17.6300 O   0  0  0  0  0  0  0  0  0  0  0  0
   -1.3920   12.6900   16.4570 H   0  0  0  0  0  0  0  0  0  0  0  0
   -0.4000   13.2870   17.7440 H   0  0  0  0  0  0  0  0  0  0  0  0
    1.0810   10.0480   18.7310 C   0  0  0  0  0  0  0  0  0  0  0  0
    1.9670   10.6410   18.4850 H   0  0  0  0  0  0  0  0  0  0  0  0
    0.4790    9.9280   17.8230 H   0  0  0  0  0  0  0  0  0  0  0  0
    1.5850    8.7550   19.1480 N   0  0  0  0  0  0  0  0  0  0  0  0
    2.2440    7.9720   18.2350 C   0  0  0  0  0  0  0  0  0  0  0  0
    2.3510    8.2400   17.0470 O   0  0  0  0  0  0  0  0  0  0  0  0
    2.7590    6.8520   18.8250 N   0  0  0  0  0  0  0  0  0  0  0  0
    1.9870    8.7210   20.0730 H   0  0  0  0  0  0  0  0  0  0  0  0
    2.3010    6.5400   19.6680 H   0  0  0  0  0  0  0  0  0  0  0  0
    3.4280    5.8430   18.0330 C   0  0  2  0  0  0  0  0  0  0  0  0
    3.3830    4.4420   18.6790 C   0  0  0  0  0  0  0  0  0  0  0  0
    4.6180    4.3310   19.5860 C   0  0  0  0  0  0  0  0  0  0  0  0
    5.5810    5.2380   18.8860 C   0  0  0  0  0  0  0  0  0  0  0  0
    6.9520    5.3200   19.0580 C   0  0  0  0  0  0  0  0  0  0  0  0
    7.6540    6.2750   18.3200 C   0  0  0  0  0  0  0  0  0  0  0  0
    6.9830    7.1350   17.4360 C   0  0  0  0  0  0  0  0  0  0  0  0
    5.5980    7.0520   17.2790 C   0  0  0  0  0  0  0  0  0  0  0  0
    4.9090    6.0960   18.0080 C   0  0  0  0  0  0  0  0  0  0  0  0
    2.9960    5.8150   17.0260 H   0  0  0  0  0  0  0  0  0  0  0  0
    2.4550    4.2340   19.2240 H   0  0  0  0  0  0  0  0  0  0  0  0
    3.4670    3.6850   17.8850 H   0  0  0  0  0  0  0  0  0  0  0  0
    4.4060    4.7110   20.5920 H   0  0  0  0  0  0  0  0  0  0  0  0
    4.9790    3.3000   19.6430 H   0  0  0  0  0  0  0  0  0  0  0  0
    7.4720    4.6620   19.7450 H   0  0  0  0  0  0  0  0  0  0  0  0
    8.7330    6.3570   18.4310 H   0  0  0  0  0  0  0  0  0  0  0  0
    7.5470    7.8740   16.8730 H   0  0  0  0  0  0  0  0  0  0  0  0
    5.0760    7.7240   16.6040 H   0  0  0  0  0  0  0  0  0  0  0  0
  1  2  1  0  0  0  0
  1 16  1  0  0  0  0
  2  7  1  0  0  0  0
  3  8  1  0  0  0  0
  3  2  2  0  0  0  0
  4  3  1  0  0  0  0
  5  4  2  0  0  0  0
  5  6  1  0  0  0  0
  6  1  2  0  0  0  0
  9  6  1  0  0  0  0
 10 11  1  0  0  0  0
 11 17  1  0  0  0  0
 11 12  2  0  0  0  0
 12 18  1  0  0  0  0
 13 12  1  0  0  0  0
 13 14  1  0  0  0  0
 15 13  2  0  0  0  0
 16 10  2  0  0  0  0
 16 15  1  0  0  0  0
 19 15  1  0  0  0  0
 20 10  1  0  0  0  0
 20 23  1  0  0  0  0
 21 20  1  0  0  0  0
 22 20  1  0  0  0  0
 24  5  1  0  0  0  0
 25 28  1  0  0  0  0
 25 24  1  0  0  0  0
 26 24  2  0  0  0  0
 27 25  1  0  0  0  0
 29 32  1  0  0  0  0
 29  4  1  0  0  0  0
 30 29  1  0  0  0  0
 31 29  1  0  0  0  0
 32 36  1  0  0  0  0
 33 35  1  0  0  0  0
 33 32  1  0  0  0  0
 34 33  2  0  0  0  0
 35 37  1  0  0  0  0
 38 47  1  6  0  0  0
 38 39  1  0  0  0  0
 38 35  1  0  0  0  0
 39 48  1  0  0  0  0
 39 40  1  0  0  0  0
 40 51  1  0  0  0  0
 40 50  1  0  0  0  0
 41 42  1  0  0  0  0
 41 40  1  0  0  0  0
 42 52  1  0  0  0  0
 43 53  1  0  0  0  0
 43 42  2  0  0  0  0
 44 43  1  0  0  0  0
 45 44  2  0  0  0  0
 45 46  1  0  0  0  0
 46 38  1  0  0  0  0
 46 41  2  0  0  0  0
 49 39  1  0  0  0  0
 54 44  1  0  0  0  0
 55 45  1  0  0  0  0
M  END
>  <MODEL>
1

>  <REMARK>
 VINA RESULT:    -9.614      0.000      0.000
 INTER + INTRA:         -12.328
 INTER:                 -11.327
 INTRA:                  -1.002
 UNBOUND:                 0.377
  Name = 
  6 active torsions:
  status: ('A' for Active; 'I' for Inactive)
    1  A    between atoms: C_1  and  C_2
    2  A    between atoms: C_8  and  C_9
    3  A    between atoms: C_12  and  C_13
    4  A    between atoms: C_13  and  N_14
    5  A    between atoms: N_17  and  C_18
    6  A    between atoms: C_27  and  C_28
                            x       y       z     vdW  Elec       q    Type
                         _______ _______ _______ _____ _____    ______ ____

>  <TORSDO>
F 6

$$$$
=
 OpenBabel07192307433D

 55 58  0  0  1  0  0  0  0  0999 V2000
    4.0000    5.7540   18.1060 C   0  0  0  0  0  0  0  0  0  0  0  0
    3.5980    7.0960   18.0780 C   0  0  0  0  0  0  0  0  0  0  0  0
    2.6340    7.5780   18.9710 C   0  0  0  0  0  0  0  0  0  0  0  0
    2.0450    6.7350   19.9290 C   0  0  0  0  0  0  0  0  0  0  0  0
    2.4060    5.3750   19.9140 C   0  0  0  0  0  0  0  0  0  0  0  0
    3.3870    4.8990   19.0300 C   0  0  0  0  0  0  0  0  0  0  0  0
    4.0450    7.7830   17.3610 H   0  0  0  0  0  0  0  0  0  0  0  0
    2.3540    8.6290   18.9180 H   0  0  0  0  0  0  0  0  0  0  0  0
    3.6650    3.8460   19.0590 H   0  0  0  0  0  0  0  0  0  0  0  0
    6.3820    5.1180   17.5360 C   0  0  0  0  0  0  0  0  0  0  0  0
    7.3040    4.6130   16.6020 C   0  0  0  0  0  0  0  0  0  0  0  0
    6.8970    4.2650   15.3160 C   0  0  0  0  0  0  0  0  0  0  0  0
    5.5660    4.4140   14.9600 C   0  0  0  0  0  0  0  0  0  0  0  0
    5.1720    4.0810   13.7240 F   0  0  0  0  0  0  0  0  0  0  0  0
    4.6320    4.9000   15.8680 C   0  0  0  0  0  0  0  0  0  0  0  0
    5.0200    5.2550   17.1730 C   0  0  0  0  0  0  0  0  0  0  0  0
    8.3520    4.4920   16.8740 H   0  0  0  0  0  0  0  0  0  0  0  0
    7.6080    3.8800   14.5920 H   0  0  0  0  0  0  0  0  0  0  0  0
    3.5970    4.9910   15.5510 H   0  0  0  0  0  0  0  0  0  0  0  0
    6.8730    5.4760   18.9150 C   0  0  0  0  0  0  0  0  0  0  0  0
    7.9560    5.6430   18.9200 H   0  0  0  0  0  0  0  0  0  0  0  0
    6.6550    4.6650   19.6180 H   0  0  0  0  0  0  0  0  0  0  0  0
    6.4090    6.4030   19.2680 H   0  0  0  0  0  0  0  0  0  0  0  0
    1.7920    4.3700   20.8110 C   0  0  0  0  0  0  0  0  0  0  0  0
    0.6420    3.7850   20.3640 N   0  0  0  0  0  0  0  0  0  0  0  0
    2.3200    4.0480   21.8660 O   0  0  0  0  0  0  0  0  0  0  0  0
    0.2870    3.0080   20.9060 H   0  0  0  0  0  0  0  0  0  0  0  0
    0.3340    3.8660   19.4030 H   0  0  0  0  0  0  0  0  0  0  0  0
    1.0380    7.2890   20.9100 C   0  0  0  0  0  0  0  0  0  0  0  0
    1.1080    6.7910   21.8820 H   0  0  0  0  0  0  0  0  0  0  0  0
    0.0270    7.1420   20.5150 H   0  0  0  0  0  0  0  0  0  0  0  0
    1.2510    8.6970   21.1800 N   0  0  0  0  0  0  0  0  0  0  0  0
    0.3530    9.6100   20.6890 C   0  0  0  0  0  0  0  0  0  0  0  0
   -0.5730    9.3330   19.9410 O   0  0  0  0  0  0  0  0  0  0  0  0
    0.6340   10.8690   21.1410 N   0  0  0  0  0  0  0  0  0  0  0  0
    1.5860    8.9180   22.1060 H   0  0  0  0  0  0  0  0  0  0  0  0
    1.5900   11.0460   21.4070 H   0  0  0  0  0  0  0  0  0  0  0  0
   -0.1400   12.0040   20.6870 C   0  0  2  0  0  0  0  0  0  0  0  0
    0.7320   13.2360   20.3610 C   0  0  0  0  0  0  0  0  0  0  0  0
    0.8660   14.0420   21.6620 C   0  0  0  0  0  0  0  0  0  0  0  0
   -0.4150   13.6980   22.3550 C   0  0  0  0  0  0  0  0  0  0  0  0
   -1.0020   14.3440   23.4300 C   0  0  0  0  0  0  0  0  0  0  0  0
   -2.1910   13.8220   23.9450 C   0  0  0  0  0  0  0  0  0  0  0  0
   -2.7660   12.6660   23.3940 C   0  0  0  0  0  0  0  0  0  0  0  0
   -2.1590   12.0140   22.3180 C   0  0  0  0  0  0  0  0  0  0  0  0
   -0.9850   12.5430   21.8050 C   0  0  0  0  0  0  0  0  0  0  0  0
   -0.7400   11.7190   19.8160 H   0  0  0  0  0  0  0  0  0  0  0  0
    1.7090   12.9870   19.9320 H   0  0  0  0  0  0  0  0  0  0  0  0
    0.2050   13.8560   19.6210 H   0  0  0  0  0  0  0  0  0  0  0  0
    1.7200   13.6970   22.2560 H   0  0  0  0  0  0  0  0  0  0  0  0
    0.9580   15.1120   21.4590 H   0  0  0  0  0  0  0  0  0  0  0  0
   -0.5570   15.2330   23.8620 H   0  0  0  0  0  0  0  0  0  0  0  0
   -2.6760   14.3140   24.7850 H   0  0  0  0  0  0  0  0  0  0  0  0
   -3.6890   12.2730   23.8120 H   0  0  0  0  0  0  0  0  0  0  0  0
   -2.5970   11.1140   21.8980 H   0  0  0  0  0  0  0  0  0  0  0  0
  1  6  1  0  0  0  0
  2  1  2  0  0  0  0
  2  3  1  0  0  0  0
  3  4  2  0  0  0  0
  4 29  1  0  0  0  0
  5  4  1  0  0  0  0
  5 24  1  0  0  0  0
  6  9  1  0  0  0  0
  6  5  2  0  0  0  0
  7  2  1  0  0  0  0
  8  3  1  0  0  0  0
 10 20  1  0  0  0  0
 11 17  1  0  0  0  0
 11 10  2  0  0  0  0
 12 11  1  0  0  0  0
 13 12  2  0  0  0  0
 13 15  1  0  0  0  0
 14 13  1  0  0  0  0
 15 16  2  0  0  0  0
 16 10  1  0  0  0  0
 16  1  1  0  0  0  0
 18 12  1  0  0  0  0
 19 15  1  0  0  0  0
 20 21  1  0  0  0  0
 20 23  1  0  0  0  0
 20 22  1  0  0  0  0
 24 26  2  0  0  0  0
 25 24  1  0  0  0  0
 25 27  1  0  0  0  0
 28 25  1  0  0  0  0
 29 32  1  0  0  0  0
 29 30  1  0  0  0  0
 31 29  1  0  0  0  0
 32 36  1  0  0  0  0
 33 35  1  0  0  0  0
 33 32  1  0  0  0  0
 34 33  2  0  0  0  0
 35 37  1  0  0  0  0
 38 47  1  6  0  0  0
 38 35  1  0  0  0  0
 38 46  1  0  0  0  0
 39 38  1  0  0  0  0
 39 40  1  0  0  0  0
 40 50  1  0  0  0  0
 40 41  1  0  0  0  0
 41 42  1  0  0  0  0
 42 52  1  0  0  0  0
 42 43  2  0  0  0  0
 43 53  1  0  0  0  0
 44 54  1  0  0  0  0
 44 43  1  0  0  0  0
 45 44  2  0  0  0  0
 46 45  1  0  0  0  0
 46 41  2  0  0  0  0
 48 39  1  0  0  0  0
 49 39  1  0  0  0  0
 51 40  1  0  0  0  0
 55 45  1  0  0  0  0
M  END
>  <MODEL>
2

>  <REMARK>
 VINA RESULT:    -9.464      3.843     10.507
 INTER + INTRA:         -12.130
 INTER:                 -11.073
 INTRA:                  -1.057
 UNBOUND:                 0.377
  Name = 
  6 active torsions:
  status: ('A' for Active; 'I' for Inactive)
    1  A    between atoms: C_1  and  C_2
    2  A    between atoms: C_8  and  C_9
    3  A    between atoms: C_12  and  C_13
    4  A    between atoms: C_13  and  N_14
    5  A    between atoms: N_17  and  C_18
    6  A    between atoms: C_27  and  C_28
                            x       y       z     vdW  Elec       q    Type
                         _______ _______ _______ _____ _____    ______ ____

>  <TORSDO>
F 6

$$$$
=
 OpenBabel07192307433D

 55 58  0  0  1  0  0  0  0  0999 V2000
    3.9820    5.6160   18.2140 C   0  0  0  0  0  0  0  0  0  0  0  0
    3.5650    6.9530   18.2510 C   0  0  0  0  0  0  0  0  0  0  0  0
    2.6030    7.3820   19.1720 C   0  0  0  0  0  0  0  0  0  0  0  0
    2.0300    6.4890   20.0940 C   0  0  0  0  0  0  0  0  0  0  0  0
    2.4070    5.1350   20.0140 C   0  0  0  0  0  0  0  0  0  0  0  0
    3.3860    4.7120   19.1020 C   0  0  0  0  0  0  0  0  0  0  0  0
    3.9990    7.6780   17.5630 H   0  0  0  0  0  0  0  0  0  0  0  0
    2.3100    8.4310   19.1690 H   0  0  0  0  0  0  0  0  0  0  0  0
    3.6770    3.6620   19.0800 H   0  0  0  0  0  0  0  0  0  0  0  0
    6.3760    5.0940   17.5810 C   0  0  0  0  0  0  0  0  0  0  0  0
    7.2980    4.6410   16.6200 C   0  0  0  0  0  0  0  0  0  0  0  0
    6.8750    4.2860   15.3400 C   0  0  0  0  0  0  0  0  0  0  0  0
    5.5310    4.3780   15.0180 C   0  0  0  0  0  0  0  0  0  0  0  0
    5.1210    4.0380   13.7880 F   0  0  0  0  0  0  0  0  0  0  0  0
    4.5980    4.8120   15.9530 C   0  0  0  0  0  0  0  0  0  0  0  0
    5.0010    5.1730   17.2510 C   0  0  0  0  0  0  0  0  0  0  0  0
    8.3560    4.5650   16.8650 H   0  0  0  0  0  0  0  0  0  0  0  0
    7.5850    3.9400   14.5960 H   0  0  0  0  0  0  0  0  0  0  0  0
    3.5520    4.8590   15.6620 H   0  0  0  0  0  0  0  0  0  0  0  0
    6.8850    5.4620   18.9510 C   0  0  0  0  0  0  0  0  0  0  0  0
    6.4380    6.3980   19.3030 H   0  0  0  0  0  0  0  0  0  0  0  0
    7.9710    5.5940   18.9290 H   0  0  0  0  0  0  0  0  0  0  0  0
    6.6240    4.6910   19.6850 H   0  0  0  0  0  0  0  0  0  0  0  0
    1.8110    4.0830   20.8680 C   0  0  0  0  0  0  0  0  0  0  0  0
    0.6710    3.4990   20.3980 N   0  0  0  0  0  0  0  0  0  0  0  0
    2.3470    3.7250   21.9080 O   0  0  0  0  0  0  0  0  0  0  0  0
    0.3290    2.6940   20.9070 H   0  0  0  0  0  0  0  0  0  0  0  0
    0.3590    3.6160   19.4420 H   0  0  0  0  0  0  0  0  0  0  0  0
    1.0250    6.9850   21.1070 C   0  0  0  0  0  0  0  0  0  0  0  0
    1.5010    7.2210   22.0640 H   0  0  0  0  0  0  0  0  0  0  0  0
    0.2680    6.2120   21.2760 H   0  0  0  0  0  0  0  0  0  0  0  0
    0.3770    8.2100   20.6840 N   0  0  0  0  0  0  0  0  0  0  0  0
    0.5180    9.3360   21.4550 C   0  0  0  0  0  0  0  0  0  0  0  0
    1.0720    9.3610   22.5440 O   0  0  0  0  0  0  0  0  0  0  0  0
   -0.0480   10.4230   20.8480 N   0  0  0  0  0  0  0  0  0  0  0  0
    0.3980    8.3950   19.6920 H   0  0  0  0  0  0  0  0  0  0  0  0
   -0.7850   10.2330   20.1870 H   0  0  0  0  0  0  0  0  0  0  0  0
   -0.0850   11.7040   21.5190 C   0  0  2  0  0  0  0  0  0  0  0  0
   -1.5200   12.2420   21.7100 C   0  0  0  0  0  0  0  0  0  0  0  0
   -1.8570   13.0610   20.4540 C   0  0  0  0  0  0  0  0  0  0  0  0
   -0.5000   13.5400   20.0410 C   0  0  0  0  0  0  0  0  0  0  0  0
   -0.1880   14.5580   19.1560 C   0  0  0  0  0  0  0  0  0  0  0  0
    1.1580   14.8110   18.8870 C   0  0  0  0  0  0  0  0  0  0  0  0
    2.1670   14.0430   19.4900 C   0  0  0  0  0  0  0  0  0  0  0  0
    1.8420   13.0100   20.3720 C   0  0  0  0  0  0  0  0  0  0  0  0
    0.5040   12.7710   20.6420 C   0  0  0  0  0  0  0  0  0  0  0  0
    0.4280   11.6320   22.4850 H   0  0  0  0  0  0  0  0  0  0  0  0
   -2.2650   11.4620   21.9010 H   0  0  0  0  0  0  0  0  0  0  0  0
   -1.5310   12.9180   22.5770 H   0  0  0  0  0  0  0  0  0  0  0  0
   -2.2870   12.4270   19.6710 H   0  0  0  0  0  0  0  0  0  0  0  0
   -2.5380   13.8850   20.6870 H   0  0  0  0  0  0  0  0  0  0  0  0
   -0.9660   15.1480   18.6830 H   0  0  0  0  0  0  0  0  0  0  0  0
    1.4310   15.6090   18.2000 H   0  0  0  0  0  0  0  0  0  0  0  0
    3.2100   14.2530   19.2650 H   0  0  0  0  0  0  0  0  0  0  0  0
    2.6210   12.4080   20.8300 H   0  0  0  0  0  0  0  0  0  0  0  0
  1  2  2  0  0  0  0
  1  6  1  0  0  0  0
  2  3  1  0  0  0  0
  3  4  2  0  0  0  0
  4 29  1  0  0  0  0
  5  4  1  0  0  0  0
  5 24  1  0  0  0  0
  6  5  2  0  0  0  0
  7  2  1  0  0  0  0
  8  3  1  0  0  0  0
  9  6  1  0  0  0  0
 10 20  1  0  0  0  0
 11 17  1  0  0  0  0
 11 10  2  0  0  0  0
 12 11  1  0  0  0  0
 13 12  2  0  0  0  0
 13 15  1  0  0  0  0
 14 13  1  0  0  0  0
 15 16  2  0  0  0  0
 16 10  1  0  0  0  0
 16  1  1  0  0  0  0
 18 12  1  0  0  0  0
 19 15  1  0  0  0  0
 20 21  1  0  0  0  0
 20 23  1  0  0  0  0
 22 20  1  0  0  0  0
 24 26  2  0  0  0  0
 25 24  1  0  0  0  0
 25 27  1  0  0  0  0
 28 25  1  0  0  0  0
 29 31  1  0  0  0  0
 29 30  1  0  0  0  0
 32 29  1  0  0  0  0
 32 33  1  0  0  0  0
 33 34  2  0  0  0  0
 35 33  1  0  0  0  0
 35 38  1  0  0  0  0
 36 32  1  0  0  0  0
 37 35  1  0  0  0  0
 38 39  1  0  0  0  0
 38 47  1  1  0  0  0
 39 48  1  0  0  0  0
 39 49  1  0  0  0  0
 40 51  1  0  0  0  0
 40 39  1  0  0  0  0
 41 40  1  0  0  0  0
 41 46  1  0  0  0  0
 42 41  2  0  0  0  0
 43 42  1  0  0  0  0
 43 44  2  0  0  0  0
 44 45  1  0  0  0  0
 45 46  2  0  0  0  0
 45 55  1  0  0  0  0
 46 38  1  0  0  0  0
 50 40  1  0  0  0  0
 52 42  1  0  0  0  0
 53 43  1  0  0  0  0
 54 44  1  0  0  0  0
M  END
>  <MODEL>
3

>  <REMARK>
 VINA RESULT:    -9.308      4.131     10.171
 INTER + INTRA:         -11.924
 INTER:                 -10.809
 INTRA:                  -1.115
 UNBOUND:                 0.377
  Name = 
  6 active torsions:
  status: ('A' for Active; 'I' for Inactive)
    1  A    between atoms: C_1  and  C_2
    2  A    between atoms: C_8  and  C_9
    3  A    between atoms: C_12  and  C_13
    4  A    between atoms: C_13  and  N_14
    5  A    between atoms: N_17  and  C_18
    6  A    between atoms: C_27  and  C_28
                            x       y       z     vdW  Elec       q    Type
                         _______ _______ _______ _____ _____    ______ ____

>  <TORSDO>
F 6

$$$$
=
 OpenBabel07192307433D

 55 58  0  0  1  0  0  0  0  0999 V2000
   -0.9480   12.0320   20.9190 C   0  0  0  0  0  0  0  0  0  0  0  0
    0.3750   11.6230   21.1280 C   0  0  0  0  0  0  0  0  0  0  0  0
    1.0890   10.9550   20.1260 C   0  0  0  0  0  0  0  0  0  0  0  0
    0.5050   10.6800   18.8780 C   0  0  0  0  0  0  0  0  0  0  0  0
   -0.8430   11.0380   18.6930 C   0  0  0  0  0  0  0  0  0  0  0  0
   -1.5500   11.7260   19.6910 C   0  0  0  0  0  0  0  0  0  0  0  0
    0.8670   11.8340   22.0760 H   0  0  0  0  0  0  0  0  0  0  0  0
    2.1170   10.6590   20.3290 H   0  0  0  0  0  0  0  0  0  0  0  0
   -2.5850   12.0130   19.5110 H   0  0  0  0  0  0  0  0  0  0  0  0
   -1.5960   14.1430   22.1540 C   0  0  0  0  0  0  0  0  0  0  0  0
   -2.3500   14.7650   23.1660 C   0  0  0  0  0  0  0  0  0  0  0  0
   -3.1750   14.0160   24.0020 C   0  0  0  0  0  0  0  0  0  0  0  0
   -3.2530   12.6430   23.8270 C   0  0  0  0  0  0  0  0  0  0  0  0
   -4.0450   11.9200   24.6300 F   0  0  0  0  0  0  0  0  0  0  0  0
   -2.5270   12.0060   22.8270 C   0  0  0  0  0  0  0  0  0  0  0  0
   -1.6910   12.7430   21.9700 C   0  0  0  0  0  0  0  0  0  0  0  0
   -2.2950   15.8440   23.3090 H   0  0  0  0  0  0  0  0  0  0  0  0
   -3.7540   14.4930   24.7860 H   0  0  0  0  0  0  0  0  0  0  0  0
   -2.6270   10.9300   22.7180 H   0  0  0  0  0  0  0  0  0  0  0  0
   -0.7220   15.0010   21.2740 C   0  0  0  0  0  0  0  0  0  0  0  0
    0.2050   14.4810   21.0080 H   0  0  0  0  0  0  0  0  0  0  0  0
   -0.4520   15.9250   21.7950 H   0  0  0  0  0  0  0  0  0  0  0  0
   -1.2310   15.2430   20.3350 H   0  0  0  0  0  0  0  0  0  0  0  0
   -1.5960   10.7250   17.4570 C   0  0  0  0  0  0  0  0  0  0  0  0
   -1.9470   11.7900   16.6790 N   0  0  0  0  0  0  0  0  0  0  0  0
   -1.8360    9.5710   17.1310 O   0  0  0  0  0  0  0  0  0  0  0  0
   -2.3460   11.5790   15.7730 H   0  0  0  0  0  0  0  0  0  0  0  0
   -1.5500   12.7110   16.8140 H   0  0  0  0  0  0  0  0  0  0  0  0
    1.3110    9.9970   17.7980 C   0  0  0  0  0  0  0  0  0  0  0  0
    2.3800   10.2060   17.8990 H   0  0  0  0  0  0  0  0  0  0  0  0
    0.9780   10.3520   16.8160 H   0  0  0  0  0  0  0  0  0  0  0  0
    1.1920    8.5530   17.8540 N   0  0  0  0  0  0  0  0  0  0  0  0
    2.3080    7.8050   18.1280 C   0  0  0  0  0  0  0  0  0  0  0  0
    3.4370    8.2630   18.2300 O   0  0  0  0  0  0  0  0  0  0  0  0
    1.9940    6.4820   18.2670 N   0  0  0  0  0  0  0  0  0  0  0  0
    0.3530    8.2010   18.2890 H   0  0  0  0  0  0  0  0  0  0  0  0
    1.1580    6.1690   17.7960 H   0  0  0  0  0  0  0  0  0  0  0  0
    3.0310    5.4970   18.4830 C   0  0  2  0  0  0  0  0  0  0  0  0
    3.2580    4.5840   17.2590 C   0  0  0  0  0  0  0  0  0  0  0  0
    2.3040    3.3900   17.4130 C   0  0  0  0  0  0  0  0  0  0  0  0
    2.1820    3.2980   18.9020 C   0  0  0  0  0  0  0  0  0  0  0  0
    1.6970    2.2430   19.6540 C   0  0  0  0  0  0  0  0  0  0  0  0
    1.6390    2.3910   21.0410 C   0  0  0  0  0  0  0  0  0  0  0  0
    2.0510    3.5860   21.6530 C   0  0  0  0  0  0  0  0  0  0  0  0
    2.5280    4.6500   20.8850 C   0  0  0  0  0  0  0  0  0  0  0  0
    2.5920    4.4920   19.5090 C   0  0  0  0  0  0  0  0  0  0  0  0
    3.9640    5.9970   18.7660 H   0  0  0  0  0  0  0  0  0  0  0  0
    3.1270    5.0910   16.2970 H   0  0  0  0  0  0  0  0  0  0  0  0
    4.2910    4.2080   17.2870 H   0  0  0  0  0  0  0  0  0  0  0  0
    1.3260    3.6040   16.9680 H   0  0  0  0  0  0  0  0  0  0  0  0
    2.7270    2.4830   16.9710 H   0  0  0  0  0  0  0  0  0  0  0  0
    1.3710    1.3210   19.1840 H   0  0  0  0  0  0  0  0  0  0  0  0
    1.2670    1.5750   21.6560 H   0  0  0  0  0  0  0  0  0  0  0  0
    1.9950    3.6830   22.7350 H   0  0  0  0  0  0  0  0  0  0  0  0
    2.8370    5.5780   21.3560 H   0  0  0  0  0  0  0  0  0  0  0  0
  1  2  1  0  0  0  0
  1 16  1  0  0  0  0
  2  7  1  0  0  0  0
  3  8  1  0  0  0  0
  3  2  2  0  0  0  0
  4  3  1  0  0  0  0
  5  4  2  0  0  0  0
  5  6  1  0  0  0  0
  6  1  2  0  0  0  0
  9  6  1  0  0  0  0
 10 11  1  0  0  0  0
 11 17  1  0  0  0  0
 11 12  2  0  0  0  0
 12 18  1  0  0  0  0
 13 12  1  0  0  0  0
 13 14  1  0  0  0  0
 15 13  2  0  0  0  0
 16 10  2  0  0  0  0
 16 15  1  0  0  0  0
 19 15  1  0  0  0  0
 20 22  1  0  0  0  0
 20 10  1  0  0  0  0
 21 20  1  0  0  0  0
 23 20  1  0  0  0  0
 24  5  1  0  0  0  0
 25 28  1  0  0  0  0
 25 24  1  0  0  0  0
 26 24  2  0  0  0  0
 27 25  1  0  0  0  0
 29 32  1  0  0  0  0
 29 30  1  0  0  0  0
 29  4  1  0  0  0  0
 31 29  1  0  0  0  0
 32 33  1  0  0  0  0
 32 36  1  0  0  0  0
 33 34  2  0  0  0  0
 33 35  1  0  0  0  0
 35 38  1  0  0  0  0
 37 35  1  0  0  0  0
 38 47  1  1  0  0  0
 38 46  1  0  0  0  0
 39 49  1  0  0  0  0
 39 40  1  0  0  0  0
 39 38  1  0  0  0  0
 40 41  1  0  0  0  0
 41 46  2  0  0  0  0
 41 42  1  0  0  0  0
 42 43  2  0  0  0  0
 43 44  1  0  0  0  0
 43 53  1  0  0  0  0
 44 54  1  0  0  0  0
 45 55  1  0  0  0  0
 45 44  2  0  0  0  0
 46 45  1  0  0  0  0
 48 39  1  0  0  0  0
 50 40  1  0  0  0  0
 51 40  1  0  0  0  0
 52 42  1  0  0  0  0
M  END
>  <MODEL>
4

>  <REMARK>
 VINA RESULT:    -9.260      1.870      2.813
 INTER + INTRA:         -11.861
 INTER:                 -10.665
 INTRA:                  -1.196
 UNBOUND:                 0.377
  Name = 
  6 active torsions:
  status: ('A' for Active; 'I' for Inactive)
    1  A    between atoms: C_1  and  C_2
    2  A    between atoms: C_8  and  C_9
    3  A    between atoms: C_12  and  C_13
    4  A    between atoms: C_13  and  N_14
    5  A    between atoms: N_17  and  C_18
    6  A    between atoms: C_27  and  C_28
                            x       y       z     vdW  Elec       q    Type
                         _______ _______ _______ _____ _____    ______ ____

>  <TORSDO>
F 6

$$$$
=
 OpenBabel07192307433D

 55 58  0  0  1  0  0  0  0  0999 V2000
   -1.1620   11.7540   20.1380 C   0  0  0  0  0  0  0  0  0  0  0  0
   -1.3180   10.4510   19.6500 C   0  0  0  0  0  0  0  0  0  0  0  0
   -0.3180    9.8430   18.8830 C   0  0  0  0  0  0  0  0  0  0  0  0
    0.8790   10.5180   18.5840 C   0  0  0  0  0  0  0  0  0  0  0  0
    1.0070   11.8490   19.0240 C   0  0  0  0  0  0  0  0  0  0  0  0
    0.0100   12.4480   19.8100 C   0  0  0  0  0  0  0  0  0  0  0  0
   -2.2240    9.8900   19.8770 H   0  0  0  0  0  0  0  0  0  0  0  0
   -0.4780    8.8270   18.5280 H   0  0  0  0  0  0  0  0  0  0  0  0
    0.1480   13.4710   20.1580 H   0  0  0  0  0  0  0  0  0  0  0  0
   -2.2980   12.2020   22.3540 C   0  0  0  0  0  0  0  0  0  0  0  0
   -3.3150   12.8510   23.0790 C   0  0  0  0  0  0  0  0  0  0  0  0
   -4.2500   13.6540   22.4290 C   0  0  0  0  0  0  0  0  0  0  0  0
   -4.1700   13.8170   21.0560 C   0  0  0  0  0  0  0  0  0  0  0  0
   -5.0680   14.5880   20.4290 F   0  0  0  0  0  0  0  0  0  0  0  0
   -3.1680   13.1960   20.3180 C   0  0  0  0  0  0  0  0  0  0  0  0
   -2.2120   12.3830   20.9530 C   0  0  0  0  0  0  0  0  0  0  0  0
   -3.3840   12.7290   24.1590 H   0  0  0  0  0  0  0  0  0  0  0  0
   -5.0380   14.1520   22.9860 H   0  0  0  0  0  0  0  0  0  0  0  0
   -3.1360   13.3600   19.2450 H   0  0  0  0  0  0  0  0  0  0  0  0
   -1.3090   11.3480   23.1050 C   0  0  0  0  0  0  0  0  0  0  0  0
   -0.3100   11.7980   23.1000 H   0  0  0  0  0  0  0  0  0  0  0  0
   -1.2350   10.3590   22.6420 H   0  0  0  0  0  0  0  0  0  0  0  0
   -1.6030   11.2410   24.1550 H   0  0  0  0  0  0  0  0  0  0  0  0
    2.1780   12.6940   18.6980 C   0  0  0  0  0  0  0  0  0  0  0  0
    2.4200   12.9020   17.3710 N   0  0  0  0  0  0  0  0  0  0  0  0
    2.8510   13.2180   19.5740 O   0  0  0  0  0  0  0  0  0  0  0  0
    3.1350   13.5800   17.1400 H   0  0  0  0  0  0  0  0  0  0  0  0
    1.7400   12.6770   16.6560 H   0  0  0  0  0  0  0  0  0  0  0  0
    1.9620    9.8260   17.7900 C   0  0  0  0  0  0  0  0  0  0  0  0
    2.9410    9.9330   18.2670 H   0  0  0  0  0  0  0  0  0  0  0  0
    2.0130   10.2640   16.7870 H   0  0  0  0  0  0  0  0  0  0  0  0
    1.7380    8.3990   17.6830 N   0  0  0  0  0  0  0  0  0  0  0  0
    2.7390    7.5390   18.0580 C   0  0  0  0  0  0  0  0  0  0  0  0
    3.8630    7.8910   18.3850 O   0  0  0  0  0  0  0  0  0  0  0  0
    2.3160    6.2400   18.0120 N   0  0  0  0  0  0  0  0  0  0  0  0
    0.8150    8.0810   17.9400 H   0  0  0  0  0  0  0  0  0  0  0  0
    1.5530    6.0400   17.3840 H   0  0  0  0  0  0  0  0  0  0  0  0
    3.2330    5.1570   18.2930 C   0  0  2  0  0  0  0  0  0  0  0  0
    3.3240    4.1310   17.1430 C   0  0  0  0  0  0  0  0  0  0  0  0
    2.2380    3.0760   17.4030 C   0  0  0  0  0  0  0  0  0  0  0  0
    2.1370    3.1150   18.8950 C   0  0  0  0  0  0  0  0  0  0  0  0
    1.5460    2.1870   19.7350 C   0  0  0  0  0  0  0  0  0  0  0  0
    1.5340    2.4490   21.1060 C   0  0  0  0  0  0  0  0  0  0  0  0
    2.0990    3.6290   21.6160 C   0  0  0  0  0  0  0  0  0  0  0  0
    2.6820    4.5650   20.7600 C   0  0  0  0  0  0  0  0  0  0  0  0
    2.6990    4.2940   19.4010 C   0  0  0  0  0  0  0  0  0  0  0  0
    4.2240    5.5610   18.5260 H   0  0  0  0  0  0  0  0  0  0  0  0
    3.2340    4.5740   16.1460 H   0  0  0  0  0  0  0  0  0  0  0  0
    4.3050    3.6360   17.1890 H   0  0  0  0  0  0  0  0  0  0  0  0
    1.2830    3.3710   16.9530 H   0  0  0  0  0  0  0  0  0  0  0  0
    2.5400    2.0930   17.0290 H   0  0  0  0  0  0  0  0  0  0  0  0
    1.1020    1.2780   19.3430 H   0  0  0  0  0  0  0  0  0  0  0  0
    1.0810    1.7330   21.7880 H   0  0  0  0  0  0  0  0  0  0  0  0
    2.0770    3.8160   22.6870 H   0  0  0  0  0  0  0  0  0  0  0  0
    3.1100    5.4830   21.1530 H   0  0  0  0  0  0  0  0  0  0  0  0
  1 16  1  0  0  0  0
  2  7  1  0  0  0  0
  2  1  2  0  0  0  0
  3  2  1  0  0  0  0
  4  3  2  0  0  0  0
  4  5  1  0  0  0  0
  5  6  2  0  0  0  0
  6  1  1  0  0  0  0
  6  9  1  0  0  0  0
  8  3  1  0  0  0  0
 10 11  1  0  0  0  0
 10 20  1  0  0  0  0
 11 17  1  0  0  0  0
 12 18  1  0  0  0  0
 12 11  2  0  0  0  0
 13 12  1  0  0  0  0
 14 13  1  0  0  0  0
 15 16  1  0  0  0  0
 15 13  2  0  0  0  0
 16 10  2  0  0  0  0
 19 15  1  0  0  0  0
 20 23  1  0  0  0  0
 21 20  1  0  0  0  0
 22 20  1  0  0  0  0
 24  5  1  0  0  0  0
 24 26  2  0  0  0  0
 25 24  1  0  0  0  0
 27 25  1  0  0  0  0
 28 25  1  0  0  0  0
 29 30  1  0  0  0  0
 29  4  1  0  0  0  0
 31 29  1  0  0  0  0
 32 29  1  0  0  0  0
 32 36  1  0  0  0  0
 32 33  1  0  0  0  0
 33 34  2  0  0  0  0
 35 33  1  0  0  0  0
 35 38  1  0  0  0  0
 37 35  1  0  0  0  0
 38 47  1  1  0  0  0
 38 46  1  0  0  0  0
 39 49  1  0  0  0  0
 39 40  1  0  0  0  0
 39 38  1  0  0  0  0
 40 41  1  0  0  0  0
 41 46  2  0  0  0  0
 41 42  1  0  0  0  0
 42 43  2  0  0  0  0
 43 44  1  0  0  0  0
 43 53  1  0  0  0  0
 44 54  1  0  0  0  0
 45 55  1  0  0  0  0
 45 44  2  0  0  0  0
 46 45  1  0  0  0  0
 48 39  1  0  0  0  0
 50 40  1  0  0  0  0
 51 40  1  0  0  0  0
 52 42  1  0  0  0  0
M  END
>  <MODEL>
5

>  <REMARK>
 VINA RESULT:    -8.890      2.572      3.622
 INTER + INTRA:         -11.371
 INTER:                 -10.547
 INTRA:                  -0.825
 UNBOUND:                 0.377
  Name = 
  6 active torsions:
  status: ('A' for Active; 'I' for Inactive)
    1  A    between atoms: C_1  and  C_2
    2  A    between atoms: C_8  and  C_9
    3  A    between atoms: C_12  and  C_13
    4  A    between atoms: C_13  and  N_14
    5  A    between atoms: N_17  and  C_18
    6  A    between atoms: C_27  and  C_28
                            x       y       z     vdW  Elec       q    Type
                         _______ _______ _______ _____ _____    ______ ____

>  <TORSDO>
F 6

$$$$
=
 OpenBabel07192307433D

 55 58  0  0  1  0  0  0  0  0999 V2000
   -1.8770   12.5890   21.9250 C   0  0  0  0  0  0  0  0  0  0  0  0
   -1.4360   11.3150   22.3060 C   0  0  0  0  0  0  0  0  0  0  0  0
   -0.5610   10.5820   21.4960 C   0  0  0  0  0  0  0  0  0  0  0  0
   -0.0910   11.1030   20.2780 C   0  0  0  0  0  0  0  0  0  0  0  0
   -0.5830   12.3560   19.8690 C   0  0  0  0  0  0  0  0  0  0  0  0
   -1.4450   13.0970   20.6930 C   0  0  0  0  0  0  0  0  0  0  0  0
   -1.7650   10.8860   23.2520 H   0  0  0  0  0  0  0  0  0  0  0  0
   -0.2400    9.5980   21.8330 H   0  0  0  0  0  0  0  0  0  0  0  0
   -1.7900   14.0760   20.3620 H   0  0  0  0  0  0  0  0  0  0  0  0
   -4.1640   13.5110   22.4910 C   0  0  0  0  0  0  0  0  0  0  0  0
   -4.9850   14.2430   23.3680 C   0  0  0  0  0  0  0  0  0  0  0  0
   -4.4550   14.8370   24.5120 C   0  0  0  0  0  0  0  0  0  0  0  0
   -3.1050   14.6970   24.7870 C   0  0  0  0  0  0  0  0  0  0  0  0
   -2.5920   15.2670   25.8860 F   0  0  0  0  0  0  0  0  0  0  0  0
   -2.2730   13.9690   23.9430 C   0  0  0  0  0  0  0  0  0  0  0  0
   -2.7870   13.3590   22.7850 C   0  0  0  0  0  0  0  0  0  0  0  0
   -6.0480   14.3570   23.1590 H   0  0  0  0  0  0  0  0  0  0  0  0
   -5.0870   15.4060   25.1870 H   0  0  0  0  0  0  0  0  0  0  0  0
   -1.2230   13.8750   24.2030 H   0  0  0  0  0  0  0  0  0  0  0  0
   -4.7880   12.8860   21.2700 C   0  0  0  0  0  0  0  0  0  0  0  0
   -5.4760   12.0800   21.5450 H   0  0  0  0  0  0  0  0  0  0  0  0
   -4.0120   12.4620   20.6240 H   0  0  0  0  0  0  0  0  0  0  0  0
   -5.3710   13.6230   20.7080 H   0  0  0  0  0  0  0  0  0  0  0  0
   -0.2340   12.9720   18.5680 C   0  0  0  0  0  0  0  0  0  0  0  0
   -1.0420   12.6530   17.5150 N   0  0  0  0  0  0  0  0  0  0  0  0
    0.6920   13.7630   18.4640 O   0  0  0  0  0  0  0  0  0  0  0  0
   -0.8920   13.1660   16.6550 H   0  0  0  0  0  0  0  0  0  0  0  0
   -1.9380   12.2000   17.6390 H   0  0  0  0  0  0  0  0  0  0  0  0
    0.8860   10.3110   19.4410 C   0  0  0  0  0  0  0  0  0  0  0  0
    1.8540   10.8170   19.3660 H   0  0  0  0  0  0  0  0  0  0  0  0
    0.4800   10.1840   18.4310 H   0  0  0  0  0  0  0  0  0  0  0  0
    1.1720    9.0110   20.0130 N   0  0  0  0  0  0  0  0  0  0  0  0
    1.9830    8.1460   19.3240 C   0  0  0  0  0  0  0  0  0  0  0  0
    2.4070    8.3500   18.1960 O   0  0  0  0  0  0  0  0  0  0  0  0
    2.2480    7.0250   20.0600 N   0  0  0  0  0  0  0  0  0  0  0  0
    1.3230    8.9960   21.0110 H   0  0  0  0  0  0  0  0  0  0  0  0
    1.5690    6.7830   20.7660 H   0  0  0  0  0  0  0  0  0  0  0  0
    3.0220    5.9400   19.4980 C   0  0  2  0  0  0  0  0  0  0  0  0
    2.8150    5.7780   17.9760 C   0  0  0  0  0  0  0  0  0  0  0  0
    1.6250    4.8250   17.7890 C   0  0  0  0  0  0  0  0  0  0  0  0
    1.7190    3.9880   19.0260 C   0  0  0  0  0  0  0  0  0  0  0  0
    1.1060    2.7740   19.2820 C   0  0  0  0  0  0  0  0  0  0  0  0
    1.3050    2.1830   20.5310 C   0  0  0  0  0  0  0  0  0  0  0  0
    2.0980    2.8120   21.5050 C   0  0  0  0  0  0  0  0  0  0  0  0
    2.7030    4.0430   21.2410 C   0  0  0  0  0  0  0  0  0  0  0  0
    2.5090    4.6190   19.9950 C   0  0  0  0  0  0  0  0  0  0  0  0
    4.0840    6.0840   19.7270 H   0  0  0  0  0  0  0  0  0  0  0  0
    2.6680    6.7260   17.4460 H   0  0  0  0  0  0  0  0  0  0  0  0
    3.7100    5.3050   17.5470 H   0  0  0  0  0  0  0  0  0  0  0  0
    0.6760    5.3730   17.7760 H   0  0  0  0  0  0  0  0  0  0  0  0
    1.7300    4.2340   16.8750 H   0  0  0  0  0  0  0  0  0  0  0  0
    0.4870    2.2890   18.5350 H   0  0  0  0  0  0  0  0  0  0  0  0
    0.8390    1.2260   20.7560 H   0  0  0  0  0  0  0  0  0  0  0  0
    2.2380    2.3380   22.4730 H   0  0  0  0  0  0  0  0  0  0  0  0
    3.3070    4.5360   21.9970 H   0  0  0  0  0  0  0  0  0  0  0  0
  1  2  1  0  0  0  0
  1 16  1  0  0  0  0
  2  7  1  0  0  0  0
  3  8  1  0  0  0  0
  3  2  2  0  0  0  0
  4  3  1  0  0  0  0
  5  4  2  0  0  0  0
  5  6  1  0  0  0  0
  6  1  2  0  0  0  0
  9  6  1  0  0  0  0
 10 16  2  0  0  0  0
 10 11  1  0  0  0  0
 11 12  2  0  0  0  0
 12 13  1  0  0  0  0
 12 18  1  0  0  0  0
 13 14  1  0  0  0  0
 15 19  1  0  0  0  0
 15 13  2  0  0  0  0
 16 15  1  0  0  0  0
 17 11  1  0  0  0  0
 20 21  1  0  0  0  0
 20 10  1  0  0  0  0
 22 20  1  0  0  0  0
 23 20  1  0  0  0  0
 24  5  1  0  0  0  0
 25 28  1  0  0  0  0
 25 24  1  0  0  0  0
 26 24  2  0  0  0  0
 27 25  1  0  0  0  0
 29 32  1  0  0  0  0
 29  4  1  0  0  0  0
 30 29  1  0  0  0  0
 31 29  1  0  0  0  0
 32 36  1  0  0  0  0
 33 32  1  0  0  0  0
 33 35  1  0  0  0  0
 34 33  2  0  0  0  0
 35 37  1  0  0  0  0
 38 47  1  1  0  0  0
 38 46  1  0  0  0  0
 38 35  1  0  0  0  0
 39 38  1  0  0  0  0
 40 39  1  0  0  0  0
 40 41  1  0  0  0  0
 41 42  2  0  0  0  0
 41 46  1  0  0  0  0
 42 43  1  0  0  0  0
 43 53  1  0  0  0  0
 43 44  2  0  0  0  0
 44 54  1  0  0  0  0
 45 44  1  0  0  0  0
 45 55  1  0  0  0  0
 46 45  2  0  0  0  0
 48 39  1  0  0  0  0
 49 39  1  0  0  0  0
 50 40  1  0  0  0  0
 51 40  1  0  0  0  0
 52 42  1  0  0  0  0
M  END
>  <MODEL>
6

>  <REMARK>
 VINA RESULT:    -8.763      2.230      3.331
 INTER + INTRA:         -11.204
 INTER:                 -11.054
 INTRA:                  -0.150
 UNBOUND:                 0.377
  Name = 
  6 active torsions:
  status: ('A' for Active; 'I' for Inactive)
    1  A    between atoms: C_1  and  C_2
    2  A    between atoms: C_8  and  C_9
    3  A    between atoms: C_12  and  C_13
    4  A    between atoms: C_13  and  N_14
    5  A    between atoms: N_17  and  C_18
    6  A    between atoms: C_27  and  C_28
                            x       y       z     vdW  Elec       q    Type
                         _______ _______ _______ _____ _____    ______ ____

>  <TORSDO>
F 6

$$$$
=
 OpenBabel07192307433D

 55 58  0  0  1  0  0  0  0  0999 V2000
    4.1330    5.8900   17.8570 C   0  0  0  0  0  0  0  0  0  0  0  0
    3.8270    7.2560   17.8020 C   0  0  0  0  0  0  0  0  0  0  0  0
    2.9480    7.8360   18.7240 C   0  0  0  0  0  0  0  0  0  0  0  0
    2.3510    7.0690   19.7400 C   0  0  0  0  0  0  0  0  0  0  0  0
    2.6120    5.6860   19.7550 C   0  0  0  0  0  0  0  0  0  0  0  0
    3.5090    5.1120   18.8410 C   0  0  0  0  0  0  0  0  0  0  0  0
    4.2850    7.8860   17.0400 H   0  0  0  0  0  0  0  0  0  0  0  0
    2.7420    8.9020   18.6480 H   0  0  0  0  0  0  0  0  0  0  0  0
    3.7120    4.0430   18.8930 H   0  0  0  0  0  0  0  0  0  0  0  0
    6.4290    5.0600   17.1950 C   0  0  0  0  0  0  0  0  0  0  0  0
    7.2630    4.4600   16.2340 C   0  0  0  0  0  0  0  0  0  0  0  0
    6.7670    4.1050   14.9810 C   0  0  0  0  0  0  0  0  0  0  0  0
    5.4340    4.3440   14.6860 C   0  0  0  0  0  0  0  0  0  0  0  0
    4.9540    4.0040   13.4820 F   0  0  0  0  0  0  0  0  0  0  0  0
    4.5860    4.9250   15.6220 C   0  0  0  0  0  0  0  0  0  0  0  0
    5.0650    5.2880   16.8930 C   0  0  0  0  0  0  0  0  0  0  0  0
    8.3110    4.2680   16.4590 H   0  0  0  0  0  0  0  0  0  0  0  0
    7.4100    3.6460   14.2370 H   0  0  0  0  0  0  0  0  0  0  0  0
    3.5450    5.0840   15.3520 H   0  0  0  0  0  0  0  0  0  0  0  0
    7.0150    5.4210   18.5360 C   0  0  0  0  0  0  0  0  0  0  0  0
    7.8680    6.1010   18.4260 H   0  0  0  0  0  0  0  0  0  0  0  0
    7.3670    4.5200   19.0490 H   0  0  0  0  0  0  0  0  0  0  0  0
    6.2770    5.9350   19.1600 H   0  0  0  0  0  0  0  0  0  0  0  0
    1.9750    4.7590   20.7170 C   0  0  0  0  0  0  0  0  0  0  0  0
    0.7630    4.2500   20.3500 N   0  0  0  0  0  0  0  0  0  0  0  0
    2.5360    4.4280   21.7520 O   0  0  0  0  0  0  0  0  0  0  0  0
    0.3800    3.5190   20.9370 H   0  0  0  0  0  0  0  0  0  0  0  0
    0.4080    4.3260   19.4060 H   0  0  0  0  0  0  0  0  0  0  0  0
    1.4390    7.7260   20.7490 C   0  0  0  0  0  0  0  0  0  0  0  0
    1.9280    8.5720   21.2430 H   0  0  0  0  0  0  0  0  0  0  0  0
    1.1550    6.9940   21.5130 H   0  0  0  0  0  0  0  0  0  0  0  0
    0.2440    8.2730   20.1380 N   0  0  0  0  0  0  0  0  0  0  0  0
    0.2320    9.5930   19.7680 C   0  0  0  0  0  0  0  0  0  0  0  0
    1.1300   10.3850   20.0110 O   0  0  0  0  0  0  0  0  0  0  0  0
   -0.9180    9.9070   19.0970 N   0  0  0  0  0  0  0  0  0  0  0  0
   -0.2290    7.6660   19.4850 H   0  0  0  0  0  0  0  0  0  0  0  0
   -1.7200    9.3260   19.2900 H   0  0  0  0  0  0  0  0  0  0  0  0
   -1.1790   11.2670   18.6800 C   0  0  2  0  0  0  0  0  0  0  0  0
   -1.5860   12.1880   19.8490 C   0  0  0  0  0  0  0  0  0  0  0  0
   -3.1150   12.0950   19.9770 C   0  0  0  0  0  0  0  0  0  0  0  0
   -3.5110   11.7950   18.5650 C   0  0  0  0  0  0  0  0  0  0  0  0
   -4.7680   11.8920   17.9930 C   0  0  0  0  0  0  0  0  0  0  0  0
   -4.9160   11.5210   16.6550 C   0  0  0  0  0  0  0  0  0  0  0  0
   -3.8190   11.0510   15.9150 C   0  0  0  0  0  0  0  0  0  0  0  0
   -2.5580   10.9450   16.5040 C   0  0  0  0  0  0  0  0  0  0  0  0
   -2.4160   11.3240   17.8290 C   0  0  0  0  0  0  0  0  0  0  0  0
   -0.3020   11.6710   18.1620 H   0  0  0  0  0  0  0  0  0  0  0  0
   -1.0830   11.9550   20.7940 H   0  0  0  0  0  0  0  0  0  0  0  0
   -1.3220   13.2240   19.5910 H   0  0  0  0  0  0  0  0  0  0  0  0
   -3.4080   11.2680   20.6330 H   0  0  0  0  0  0  0  0  0  0  0  0
   -3.5410   13.0340   20.3400 H   0  0  0  0  0  0  0  0  0  0  0  0
   -5.6180   12.2480   18.5650 H   0  0  0  0  0  0  0  0  0  0  0  0
   -5.8920   11.5930   16.1800 H   0  0  0  0  0  0  0  0  0  0  0  0
   -3.9560   10.7630   14.8750 H   0  0  0  0  0  0  0  0  0  0  0  0
   -1.7110   10.5710   15.9360 H   0  0  0  0  0  0  0  0  0  0  0  0
  1  6  1  0  0  0  0
  2  1  2  0  0  0  0
  2  3  1  0  0  0  0
  3  4  2  0  0  0  0
  4  5  1  0  0  0  0
  4 29  1  0  0  0  0
  5 24  1  0  0  0  0
  6  9  1  0  0  0  0
  6  5  2  0  0  0  0
  7  2  1  0  0  0  0
  8  3  1  0  0  0  0
 10 20  1  0  0  0  0
 11 17  1  0  0  0  0
 11 10  2  0  0  0  0
 12 11  1  0  0  0  0
 13 12  2  0  0  0  0
 13 15  1  0  0  0  0
 14 13  1  0  0  0  0
 15 16  2  0  0  0  0
 16 10  1  0  0  0  0
 16  1  1  0  0  0  0
 18 12  1  0  0  0  0
 19 15  1  0  0  0  0
 20 22  1  0  0  0  0
 20 23  1  0  0  0  0
 21 20  1  0  0  0  0
 24 26  2  0  0  0  0
 25 24  1  0  0  0  0
 25 27  1  0  0  0  0
 28 25  1  0  0  0  0
 29 30  1  0  0  0  0
 29 31  1  0  0  0  0
 32 29  1  0  0  0  0
 33 34  2  0  0  0  0
 33 32  1  0  0  0  0
 35 37  1  0  0  0  0
 35 33  1  0  0  0  0
 36 32  1  0  0  0  0
 38 47  1  6  0  0  0
 38 35  1  0  0  0  0
 38 39  1  0  0  0  0
 39 40  1  0  0  0  0
 39 48  1  0  0  0  0
 40 51  1  0  0  0  0
 40 50  1  0  0  0  0
 41 40  1  0  0  0  0
 42 41  1  0  0  0  0
 42 52  1  0  0  0  0
 43 42  2  0  0  0  0
 44 45  2  0  0  0  0
 44 43  1  0  0  0  0
 45 46  1  0  0  0  0
 46 41  2  0  0  0  0
 46 38  1  0  0  0  0
 49 39  1  0  0  0  0
 53 43  1  0  0  0  0
 54 44  1  0  0  0  0
 55 45  1  0  0  0  0
M  END
>  <MODEL>
7

>  <REMARK>
 VINA RESULT:    -8.741      4.074     10.465
 INTER + INTRA:         -11.175
 INTER:                 -10.319
 INTRA:                  -0.857
 UNBOUND:                 0.377
  Name = 
  6 active torsions:
  status: ('A' for Active; 'I' for Inactive)
    1  A    between atoms: C_1  and  C_2
    2  A    between atoms: C_8  and  C_9
    3  A    between atoms: C_12  and  C_13
    4  A    between atoms: C_13  and  N_14
    5  A    between atoms: N_17  and  C_18
    6  A    between atoms: C_27  and  C_28
                            x       y       z     vdW  Elec       q    Type
                         _______ _______ _______ _____ _____    ______ ____

>  <TORSDO>
F 6

$$$$
=
 OpenBabel07192307433D

 55 58  0  0  1  0  0  0  0  0999 V2000
   -1.4350   12.6900   21.9800 C   0  0  0  0  0  0  0  0  0  0  0  0
   -0.8940   11.4250   22.2440 C   0  0  0  0  0  0  0  0  0  0  0  0
   -0.0680   10.7850   21.3130 C   0  0  0  0  0  0  0  0  0  0  0  0
    0.2530   11.3940   20.0870 C   0  0  0  0  0  0  0  0  0  0  0  0
   -0.3400   12.6370   19.7990 C   0  0  0  0  0  0  0  0  0  0  0  0
   -1.1530   13.2850   20.7430 C   0  0  0  0  0  0  0  0  0  0  0  0
   -1.1060   10.9300   23.1910 H   0  0  0  0  0  0  0  0  0  0  0  0
    0.3340    9.8040   21.5610 H   0  0  0  0  0  0  0  0  0  0  0  0
   -1.5780   14.2580   20.5020 H   0  0  0  0  0  0  0  0  0  0  0  0
   -3.7050   13.3800   22.8580 C   0  0  0  0  0  0  0  0  0  0  0  0
   -4.4710   14.0230   23.8480 C   0  0  0  0  0  0  0  0  0  0  0  0
   -3.8540   14.6610   24.9220 C   0  0  0  0  0  0  0  0  0  0  0  0
   -2.4720   14.6530   25.0150 C   0  0  0  0  0  0  0  0  0  0  0  0
   -1.8760   15.2660   26.0470 F   0  0  0  0  0  0  0  0  0  0  0  0
   -1.6930   14.0150   24.0560 C   0  0  0  0  0  0  0  0  0  0  0  0
   -2.2930   13.3620   22.9650 C   0  0  0  0  0  0  0  0  0  0  0  0
   -5.5580   14.0320   23.7820 H   0  0  0  0  0  0  0  0  0  0  0  0
   -4.4430   15.1620   25.6840 H   0  0  0  0  0  0  0  0  0  0  0  0
   -0.6130   14.0240   24.1740 H   0  0  0  0  0  0  0  0  0  0  0  0
   -4.4220   12.7020   21.7180 C   0  0  0  0  0  0  0  0  0  0  0  0
   -4.0380   11.6880   21.5540 H   0  0  0  0  0  0  0  0  0  0  0  0
   -4.2820   13.2680   20.7920 H   0  0  0  0  0  0  0  0  0  0  0  0
   -5.4910   12.6040   21.9320 H   0  0  0  0  0  0  0  0  0  0  0  0
   -0.1530   13.3370   18.5080 C   0  0  0  0  0  0  0  0  0  0  0  0
   -1.0090   12.9890   17.5040 N   0  0  0  0  0  0  0  0  0  0  0  0
    0.6870   14.2160   18.3740 O   0  0  0  0  0  0  0  0  0  0  0  0
   -0.9750   13.5500   16.6620 H   0  0  0  0  0  0  0  0  0  0  0  0
   -1.8480   12.4480   17.6730 H   0  0  0  0  0  0  0  0  0  0  0  0
    1.1810   10.7020   19.1170 C   0  0  0  0  0  0  0  0  0  0  0  0
    2.1540   11.2000   19.0660 H   0  0  0  0  0  0  0  0  0  0  0  0
    0.7330   10.7090   18.1180 H   0  0  0  0  0  0  0  0  0  0  0  0
    1.4670    9.3360   19.5080 N   0  0  0  0  0  0  0  0  0  0  0  0
    1.8830    8.4440   18.5530 C   0  0  0  0  0  0  0  0  0  0  0  0
    1.9340    8.6900   17.3560 O   0  0  0  0  0  0  0  0  0  0  0  0
    2.2270    7.2450   19.1130 N   0  0  0  0  0  0  0  0  0  0  0  0
    1.9350    9.2240   20.3950 H   0  0  0  0  0  0  0  0  0  0  0  0
    1.7940    7.0240   19.9960 H   0  0  0  0  0  0  0  0  0  0  0  0
    2.6210    6.1300   18.2800 C   0  0  2  0  0  0  0  0  0  0  0  0
    2.3490    4.7610   18.9390 C   0  0  0  0  0  0  0  0  0  0  0  0
    3.6040    4.4020   19.7510 C   0  0  0  0  0  0  0  0  0  0  0  0
    4.6710    5.1050   18.9720 C   0  0  0  0  0  0  0  0  0  0  0  0
    6.0400    4.9140   19.0380 C   0  0  0  0  0  0  0  0  0  0  0  0
    6.8590    5.7160   18.2410 C   0  0  0  0  0  0  0  0  0  0  0  0
    6.3050    6.6980   17.4030 C   0  0  0  0  0  0  0  0  0  0  0  0
    4.9230    6.8920   17.3530 C   0  0  0  0  0  0  0  0  0  0  0  0
    4.1160    6.0860   18.1400 C   0  0  0  0  0  0  0  0  0  0  0  0
    2.1170    6.1950   17.3090 H   0  0  0  0  0  0  0  0  0  0  0  0
    1.4430    4.7370   19.5540 H   0  0  0  0  0  0  0  0  0  0  0  0
    2.2220    4.0080   18.1470 H   0  0  0  0  0  0  0  0  0  0  0  0
    3.5480    4.8090   20.7660 H   0  0  0  0  0  0  0  0  0  0  0  0
    3.7570    3.3200   19.7880 H   0  0  0  0  0  0  0  0  0  0  0  0
    6.4710    4.1610   19.6890 H   0  0  0  0  0  0  0  0  0  0  0  0
    7.9380    5.5830   18.2690 H   0  0  0  0  0  0  0  0  0  0  0  0
    6.9600    7.3150   16.7930 H   0  0  0  0  0  0  0  0  0  0  0  0
    4.4950    7.6590   16.7150 H   0  0  0  0  0  0  0  0  0  0  0  0
  1  2  1  0  0  0  0
  1 16  1  0  0  0  0
  2  7  1  0  0  0  0
  3  8  1  0  0  0  0
  3  2  2  0  0  0  0
  4  3  1  0  0  0  0
  5  4  2  0  0  0  0
  5  6  1  0  0  0  0
  6  1  2  0  0  0  0
  9  6  1  0  0  0  0
 10 16  2  0  0  0  0
 10 11  1  0  0  0  0
 11 12  2  0  0  0  0
 12 13  1  0  0  0  0
 12 18  1  0  0  0  0
 13 14  1  0  0  0  0
 15 19  1  0  0  0  0
 15 13  2  0  0  0  0
 16 15  1  0  0  0  0
 17 11  1  0  0  0  0
 20 23  1  0  0  0  0
 20 10  1  0  0  0  0
 21 20  1  0  0  0  0
 22 20  1  0  0  0  0
 24  5  1  0  0  0  0
 25 28  1  0  0  0  0
 25 24  1  0  0  0  0
 26 24  2  0  0  0  0
 27 25  1  0  0  0  0
 29 32  1  0  0  0  0
 29  4  1  0  0  0  0
 30 29  1  0  0  0  0
 31 29  1  0  0  0  0
 32 36  1  0  0  0  0
 33 35  1  0  0  0  0
 33 32  1  0  0  0  0
 34 33  2  0  0  0  0
 35 37  1  0  0  0  0
 38 47  1  6  0  0  0
 38 39  1  0  0  0  0
 38 35  1  0  0  0  0
 39 48  1  0  0  0  0
 39 40  1  0  0  0  0
 40 51  1  0  0  0  0
 40 50  1  0  0  0  0
 41 42  1  0  0  0  0
 41 40  1  0  0  0  0
 42 52  1  0  0  0  0
 43 53  1  0  0  0  0
 43 42  2  0  0  0  0
 44 43  1  0  0  0  0
 45 44  2  0  0  0  0
 45 46  1  0  0  0  0
 46 38  1  0  0  0  0
 46 41  2  0  0  0  0
 49 39  1  0  0  0  0
 54 44  1  0  0  0  0
 55 45  1  0  0  0  0
M  END
>  <MODEL>
8

>  <REMARK>
 VINA RESULT:    -8.712      1.553      1.863
 INTER + INTRA:         -11.137
 INTER:                 -10.171
 INTRA:                  -0.966
 UNBOUND:                 0.377
  Name = 
  6 active torsions:
  status: ('A' for Active; 'I' for Inactive)
    1  A    between atoms: C_1  and  C_2
    2  A    between atoms: C_8  and  C_9
    3  A    between atoms: C_12  and  C_13
    4  A    between atoms: C_13  and  N_14
    5  A    between atoms: N_17  and  C_18
    6  A    between atoms: C_27  and  C_28
                            x       y       z     vdW  Elec       q    Type
                         _______ _______ _______ _____ _____    ______ ____

>  <TORSDO>
F 6

$$$$
=
 OpenBabel07192307433D

 55 58  0  0  1  0  0  0  0  0999 V2000
    2.3690    6.3920   19.4450 C   0  0  0  0  0  0  0  0  0  0  0  0
    2.4630    6.9130   18.1480 C   0  0  0  0  0  0  0  0  0  0  0  0
    1.9790    8.1920   17.8480 C   0  0  0  0  0  0  0  0  0  0  0  0
    1.3910    8.9970   18.8390 C   0  0  0  0  0  0  0  0  0  0  0  0
    1.2430    8.4480   20.1260 C   0  0  0  0  0  0  0  0  0  0  0  0
    1.7470    7.1730   20.4290 C   0  0  0  0  0  0  0  0  0  0  0  0
    2.9280    6.3250   17.3580 H   0  0  0  0  0  0  0  0  0  0  0  0
    2.0760    8.5590   16.8280 H   0  0  0  0  0  0  0  0  0  0  0  0
    1.6410    6.7830   21.4400 H   0  0  0  0  0  0  0  0  0  0  0  0
    4.1350    4.5890   19.2740 C   0  0  0  0  0  0  0  0  0  0  0  0
    4.5840    3.3030   19.6290 C   0  0  0  0  0  0  0  0  0  0  0  0
    3.8060    2.4740   20.4340 C   0  0  0  0  0  0  0  0  0  0  0  0
    2.5800    2.9280   20.8930 C   0  0  0  0  0  0  0  0  0  0  0  0
    1.8290    2.1330   21.6670 F   0  0  0  0  0  0  0  0  0  0  0  0
    2.1180    4.1980   20.5670 C   0  0  0  0  0  0  0  0  0  0  0  0
    2.8880    5.0530   19.7580 C   0  0  0  0  0  0  0  0  0  0  0  0
    5.5470    2.9400   19.2730 H   0  0  0  0  0  0  0  0  0  0  0  0
    4.1490    1.4810   20.7050 H   0  0  0  0  0  0  0  0  0  0  0  0
    1.1560    4.5180   20.9570 H   0  0  0  0  0  0  0  0  0  0  0  0
    5.0170    5.4470   18.4040 C   0  0  0  0  0  0  0  0  0  0  0  0
    5.6060    6.1490   19.0050 H   0  0  0  0  0  0  0  0  0  0  0  0
    4.4080    6.0300   17.7060 H   0  0  0  0  0  0  0  0  0  0  0  0
    5.7310    4.8330   17.8440 H   0  0  0  0  0  0  0  0  0  0  0  0
    0.5630    9.1600   21.2310 C   0  0  0  0  0  0  0  0  0  0  0  0
    1.3330    9.4670   22.3150 N   0  0  0  0  0  0  0  0  0  0  0  0
   -0.6090    9.5000   21.1450 O   0  0  0  0  0  0  0  0  0  0  0  0
    0.9140   10.0650   23.0160 H   0  0  0  0  0  0  0  0  0  0  0  0
    2.3430    9.4060   22.2940 H   0  0  0  0  0  0  0  0  0  0  0  0
    0.9160   10.3900   18.5000 C   0  0  0  0  0  0  0  0  0  0  0  0
    0.4770   10.8890   19.3700 H   0  0  0  0  0  0  0  0  0  0  0  0
    0.1570   10.3340   17.7120 H   0  0  0  0  0  0  0  0  0  0  0  0
    1.9980   11.2510   18.0670 N   0  0  0  0  0  0  0  0  0  0  0  0
    2.0490   12.5400   18.5320 C   0  0  0  0  0  0  0  0  0  0  0  0
    1.1800   13.0610   19.2160 O   0  0  0  0  0  0  0  0  0  0  0  0
    3.1950   13.1660   18.1270 N   0  0  0  0  0  0  0  0  0  0  0  0
    2.9040   10.8110   17.9960 H   0  0  0  0  0  0  0  0  0  0  0  0
    3.6260   12.8100   17.2870 H   0  0  0  0  0  0  0  0  0  0  0  0
    3.4220   14.5600   18.4390 C   0  0  2  0  0  0  0  0  0  0  0  0
    4.3430   15.2630   17.4180 C   0  0  0  0  0  0  0  0  0  0  0  0
    5.7840   15.0750   17.9160 C   0  0  0  0  0  0  0  0  0  0  0  0
    5.5760   14.9820   19.3950 C   0  0  0  0  0  0  0  0  0  0  0  0
    6.5220   15.1050   20.3980 C   0  0  0  0  0  0  0  0  0  0  0  0
    6.1070   14.9430   21.7210 C   0  0  0  0  0  0  0  0  0  0  0  0
    4.7670   14.6520   22.0230 C   0  0  0  0  0  0  0  0  0  0  0  0
    3.8220   14.5170   21.0030 C   0  0  0  0  0  0  0  0  0  0  0  0
    4.2390   14.6890   19.6930 C   0  0  0  0  0  0  0  0  0  0  0  0
    2.4630   15.0840   18.5140 H   0  0  0  0  0  0  0  0  0  0  0  0
    4.2160   14.9090   16.3890 H   0  0  0  0  0  0  0  0  0  0  0  0
    4.1130   16.3390   17.4190 H   0  0  0  0  0  0  0  0  0  0  0  0
    6.2150   14.1410   17.5370 H   0  0  0  0  0  0  0  0  0  0  0  0
    6.4160   15.9220   17.6340 H   0  0  0  0  0  0  0  0  0  0  0  0
    7.5590   15.3230   20.1670 H   0  0  0  0  0  0  0  0  0  0  0  0
    6.8290   15.0410   22.5290 H   0  0  0  0  0  0  0  0  0  0  0  0
    4.4650   14.5260   23.0600 H   0  0  0  0  0  0  0  0  0  0  0  0
    2.7880   14.2810   21.2350 H   0  0  0  0  0  0  0  0  0  0  0  0
  1 16  1  0  0  0  0
  1  6  1  0  0  0  0
  2  1  2  0  0  0  0
  3  2  1  0  0  0  0
  3  4  2  0  0  0  0
  4  5  1  0  0  0  0
  5  6  2  0  0  0  0
  5 24  1  0  0  0  0
  6  9  1  0  0  0  0
  7  2  1  0  0  0  0
  8  3  1  0  0  0  0
 10 11  2  0  0  0  0
 10 16  1  0  0  0  0
 11 12  1  0  0  0  0
 12 18  1  0  0  0  0
 12 13  2  0  0  0  0
 13 14  1  0  0  0  0
 15 13  1  0  0  0  0
 15 19  1  0  0  0  0
 16 15  2  0  0  0  0
 17 11  1  0  0  0  0
 20 21  1  0  0  0  0
 20 10  1  0  0  0  0
 22 20  1  0  0  0  0
 23 20  1  0  0  0  0
 24 25  1  0  0  0  0
 25 27  1  0  0  0  0
 26 24  2  0  0  0  0
 28 25  1  0  0  0  0
 29  4  1  0  0  0  0
 29 30  1  0  0  0  0
 31 29  1  0  0  0  0
 32 29  1  0  0  0  0
 32 33  1  0  0  0  0
 33 34  2  0  0  0  0
 35 38  1  0  0  0  0
 35 33  1  0  0  0  0
 36 32  1  0  0  0  0
 37 35  1  0  0  0  0
 38 47  1  1  0  0  0
 38 46  1  0  0  0  0
 39 49  1  0  0  0  0
 39 40  1  0  0  0  0
 39 38  1  0  0  0  0
 40 41  1  0  0  0  0
 41 46  2  0  0  0  0
 41 42  1  0  0  0  0
 42 43  2  0  0  0  0
 43 44  1  0  0  0  0
 43 53  1  0  0  0  0
 44 54  1  0  0  0  0
 45 55  1  0  0  0  0
 45 44  2  0  0  0  0
 46 45  1  0  0  0  0
 48 39  1  0  0  0  0
 50 40  1  0  0  0  0
 51 40  1  0  0  0  0
 52 42  1  0  0  0  0
M  END
>  <MODEL>
9

>  <REMARK>
 VINA RESULT:    -8.684      4.457      8.689
 INTER + INTRA:         -11.099
 INTER:                 -10.668
 INTRA:                  -0.431
 UNBOUND:                 0.377
  Name = 
  6 active torsions:
  status: ('A' for Active; 'I' for Inactive)
    1  A    between atoms: C_1  and  C_2
    2  A    between atoms: C_8  and  C_9
    3  A    between atoms: C_12  and  C_13
    4  A    between atoms: C_13  and  N_14
    5  A    between atoms: N_17  and  C_18
    6  A    between atoms: C_27  and  C_28
                            x       y       z     vdW  Elec       q    Type
                         _______ _______ _______ _____ _____    ______ ____

>  <TORSDO>
F 6

$$$$
=
 OpenBabel07192307433D

 55 58  0  0  1  0  0  0  0  0999 V2000
   -0.1210   10.8880   21.7320 C   0  0  0  0  0  0  0  0  0  0  0  0
   -0.0990    9.7680   22.5720 C   0  0  0  0  0  0  0  0  0  0  0  0
    0.3450    8.5250   22.1060 C   0  0  0  0  0  0  0  0  0  0  0  0
    0.7920    8.3630   20.7820 C   0  0  0  0  0  0  0  0  0  0  0  0
    0.7110    9.4760   19.9240 C   0  0  0  0  0  0  0  0  0  0  0  0
    0.2840   10.7250   20.4000 C   0  0  0  0  0  0  0  0  0  0  0  0
   -0.4210    9.8590   23.6090 H   0  0  0  0  0  0  0  0  0  0  0  0
    0.3500    7.6820   22.7940 H   0  0  0  0  0  0  0  0  0  0  0  0
    0.2560   11.5750   19.7190 H   0  0  0  0  0  0  0  0  0  0  0  0
    0.0830   13.4040   21.9100 C   0  0  0  0  0  0  0  0  0  0  0  0
   -0.4200   14.6220   22.4010 C   0  0  0  0  0  0  0  0  0  0  0  0
   -1.5500   14.6500   23.2160 C   0  0  0  0  0  0  0  0  0  0  0  0
   -2.1860   13.4610   23.5370 C   0  0  0  0  0  0  0  0  0  0  0  0
   -3.2720   13.4840   24.3200 F   0  0  0  0  0  0  0  0  0  0  0  0
   -1.7160   12.2450   23.0550 C   0  0  0  0  0  0  0  0  0  0  0  0
   -0.5790   12.1930   22.2290 C   0  0  0  0  0  0  0  0  0  0  0  0
    0.0730   15.5610   22.1520 H   0  0  0  0  0  0  0  0  0  0  0  0
   -1.9370   15.5880   23.6000 H   0  0  0  0  0  0  0  0  0  0  0  0
   -2.2510   11.3380   23.3230 H   0  0  0  0  0  0  0  0  0  0  0  0
    1.3060   13.4300   21.0300 C   0  0  0  0  0  0  0  0  0  0  0  0
    2.0440   14.1510   21.3980 H   0  0  0  0  0  0  0  0  0  0  0  0
    1.0330   13.7190   20.0100 H   0  0  0  0  0  0  0  0  0  0  0  0
    1.7980   12.4520   21.0150 H   0  0  0  0  0  0  0  0  0  0  0  0
    1.0670    9.4110   18.4890 C   0  0  0  0  0  0  0  0  0  0  0  0
    0.0600    9.6760   17.6060 N   0  0  0  0  0  0  0  0  0  0  0  0
    2.2120    9.1870   18.1230 O   0  0  0  0  0  0  0  0  0  0  0  0
    0.3200    9.7620   16.6320 H   0  0  0  0  0  0  0  0  0  0  0  0
   -0.8160   10.0920   17.8950 H   0  0  0  0  0  0  0  0  0  0  0  0
    1.3070    7.0230   20.3150 C   0  0  0  0  0  0  0  0  0  0  0  0
    0.7910    6.6860   19.4100 H   0  0  0  0  0  0  0  0  0  0  0  0
    1.1510    6.2780   21.1030 H   0  0  0  0  0  0  0  0  0  0  0  0
    2.7130    7.0660   19.9640 N   0  0  0  0  0  0  0  0  0  0  0  0
    3.3770    5.8880   19.7390 C   0  0  0  0  0  0  0  0  0  0  0  0
    2.8940    4.7790   19.9140 O   0  0  0  0  0  0  0  0  0  0  0  0
    4.6520    6.1160   19.2990 N   0  0  0  0  0  0  0  0  0  0  0  0
    2.9840    7.8080   19.3370 H   0  0  0  0  0  0  0  0  0  0  0  0
    5.0620    7.0010   19.5570 H   0  0  0  0  0  0  0  0  0  0  0  0
    5.5610    5.0150   19.0720 C   0  0  2  0  0  0  0  0  0  0  0  0
    7.0200    5.3510   19.4470 C   0  0  0  0  0  0  0  0  0  0  0  0
    7.6750    5.9510   18.1930 C   0  0  0  0  0  0  0  0  0  0  0  0
    6.9000    5.2770   17.1050 C   0  0  0  0  0  0  0  0  0  0  0  0
    7.2210    5.1840   15.7610 C   0  0  0  0  0  0  0  0  0  0  0  0
    6.3240    4.5360   14.9100 C   0  0  0  0  0  0  0  0  0  0  0  0
    5.1230    4.0020   15.4050 C   0  0  0  0  0  0  0  0  0  0  0  0
    4.8020    4.1110   16.7590 C   0  0  0  0  0  0  0  0  0  0  0  0
    5.7020    4.7470   17.6000 C   0  0  0  0  0  0  0  0  0  0  0  0
    5.2180    4.1310   19.6210 H   0  0  0  0  0  0  0  0  0  0  0  0
    7.1130    6.0150   20.3140 H   0  0  0  0  0  0  0  0  0  0  0  0
    7.5440    4.4170   19.6990 H   0  0  0  0  0  0  0  0  0  0  0  0
    7.5230    7.0350   18.1470 H   0  0  0  0  0  0  0  0  0  0  0  0
    8.7430    5.7180   18.1520 H   0  0  0  0  0  0  0  0  0  0  0  0
    8.1450    5.6020   15.3750 H   0  0  0  0  0  0  0  0  0  0  0  0
    6.5550    4.4440   13.8510 H   0  0  0  0  0  0  0  0  0  0  0  0
    4.4360    3.5040   14.7250 H   0  0  0  0  0  0  0  0  0  0  0  0
    3.8690    3.7080   17.1410 H   0  0  0  0  0  0  0  0  0  0  0  0
  1 16  1  0  0  0  0
  1  2  1  0  0  0  0
  2  7  1  0  0  0  0
  3  2  2  0  0  0  0
  3  8  1  0  0  0  0
  4  3  1  0  0  0  0
  5  6  1  0  0  0  0
  5  4  2  0  0  0  0
  6  1  2  0  0  0  0
  9  6  1  0  0  0  0
 10 16  2  0  0  0  0
 10 11  1  0  0  0  0
 11 12  2  0  0  0  0
 12 13  1  0  0  0  0
 12 18  1  0  0  0  0
 13 14  1  0  0  0  0
 15 19  1  0  0  0  0
 15 13  2  0  0  0  0
 16 15  1  0  0  0  0
 17 11  1  0  0  0  0
 20 21  1  0  0  0  0
 20 10  1  0  0  0  0
 22 20  1  0  0  0  0
 23 20  1  0  0  0  0
 24  5  1  0  0  0  0
 25 28  1  0  0  0  0
 25 24  1  0  0  0  0
 26 24  2  0  0  0  0
 27 25  1  0  0  0  0
 29  4  1  0  0  0  0
 29 31  1  0  0  0  0
 30 29  1  0  0  0  0
 32 29  1  0  0  0  0
 33 34  2  0  0  0  0
 33 32  1  0  0  0  0
 35 37  1  0  0  0  0
 35 33  1  0  0  0  0
 36 32  1  0  0  0  0
 38 35  1  0  0  0  0
 38 39  1  0  0  0  0
 38 47  1  1  0  0  0
 39 49  1  0  0  0  0
 39 48  1  0  0  0  0
 40 39  1  0  0  0  0
 41 46  1  0  0  0  0
 41 40  1  0  0  0  0
 42 41  2  0  0  0  0
 43 44  2  0  0  0  0
 43 42  1  0  0  0  0
 44 45  1  0  0  0  0
 45 55  1  0  0  0  0
 45 46  2  0  0  0  0
 46 38  1  0  0  0  0
 50 40  1  0  0  0  0
 51 40  1  0  0  0  0
 52 42  1  0  0  0  0
 53 43  1  0  0  0  0
 54 44  1  0  0  0  0
M  END
>  <MODEL>
10

>  <REMARK>
 VINA RESULT:    -8.613      1.954      2.908
 INTER + INTRA:         -11.006
 INTER:                 -10.514
 INTRA:                  -0.491
 UNBOUND:                 0.377
  Name = 
  6 active torsions:
  status: ('A' for Active; 'I' for Inactive)
    1  A    between atoms: C_1  and  C_2
    2  A    between atoms: C_8  and  C_9
    3  A    between atoms: C_12  and  C_13
    4  A    between atoms: C_13  and  N_14
    5  A    between atoms: N_17  and  C_18
    6  A    between atoms: C_27  and  C_28
                            x       y       z     vdW  Elec       q    Type
                         _______ _______ _______ _____ _____    ______ ____

>  <TORSDO>
F 6

$$$$
=
 OpenBabel07192307433D

 55 58  0  0  1  0  0  0  0  0999 V2000
    2.3840    6.0760   18.9150 C   0  0  0  0  0  0  0  0  0  0  0  0
    2.5560    6.8550   17.7630 C   0  0  0  0  0  0  0  0  0  0  0  0
    2.2790    8.2270   17.7720 C   0  0  0  0  0  0  0  0  0  0  0  0
    1.8270    8.8680   18.9390 C   0  0  0  0  0  0  0  0  0  0  0  0
    1.5970    8.0730   20.0760 C   0  0  0  0  0  0  0  0  0  0  0  0
    1.8950    6.7010   20.0690 C   0  0  0  0  0  0  0  0  0  0  0  0
    2.9210    6.3960   16.8450 H   0  0  0  0  0  0  0  0  0  0  0  0
    2.4300    8.7950   16.8560 H   0  0  0  0  0  0  0  0  0  0  0  0
    1.7310    6.1150   20.9730 H   0  0  0  0  0  0  0  0  0  0  0  0
    3.9990    4.1350   19.0690 C   0  0  0  0  0  0  0  0  0  0  0  0
    4.2180    2.7450   19.0690 C   0  0  0  0  0  0  0  0  0  0  0  0
    3.1590    1.8580   18.8870 C   0  0  0  0  0  0  0  0  0  0  0  0
    1.8780    2.3550   18.7110 C   0  0  0  0  0  0  0  0  0  0  0  0
    0.8580    1.5040   18.5360 F   0  0  0  0  0  0  0  0  0  0  0  0
    1.6340    3.7240   18.7180 C   0  0  0  0  0  0  0  0  0  0  0  0
    2.6860    4.6380   18.9020 C   0  0  0  0  0  0  0  0  0  0  0  0
    5.2220    2.3470   19.2080 H   0  0  0  0  0  0  0  0  0  0  0  0
    3.3270    0.7860   18.8830 H   0  0  0  0  0  0  0  0  0  0  0  0
    0.6120    4.0700   18.5870 H   0  0  0  0  0  0  0  0  0  0  0  0
    5.1790    5.0510   19.2730 C   0  0  0  0  0  0  0  0  0  0  0  0
    4.9000    6.0990   19.1130 H   0  0  0  0  0  0  0  0  0  0  0  0
    5.9770    4.8040   18.5660 H   0  0  0  0  0  0  0  0  0  0  0  0
    5.5590    4.9770   20.2970 H   0  0  0  0  0  0  0  0  0  0  0  0
    1.0390    8.6140   21.3360 C   0  0  0  0  0  0  0  0  0  0  0  0
    1.9460    9.0450   22.2600 N   0  0  0  0  0  0  0  0  0  0  0  0
   -0.1670    8.7170   21.5080 O   0  0  0  0  0  0  0  0  0  0  0  0
    1.5770    9.5340   23.0660 H   0  0  0  0  0  0  0  0  0  0  0  0
    2.9220    9.1860   22.0340 H   0  0  0  0  0  0  0  0  0  0  0  0
    1.5760   10.3580   18.9360 C   0  0  0  0  0  0  0  0  0  0  0  0
    1.4930   10.7510   17.9170 H   0  0  0  0  0  0  0  0  0  0  0  0
    2.4050   10.8680   19.4390 H   0  0  0  0  0  0  0  0  0  0  0  0
    0.3290   10.7070   19.5870 N   0  0  0  0  0  0  0  0  0  0  0  0
    0.1110   12.0120   19.9470 C   0  0  0  0  0  0  0  0  0  0  0  0
    0.9430   12.9020   19.8530 O   0  0  0  0  0  0  0  0  0  0  0  0
   -1.1570   12.1850   20.4300 N   0  0  0  0  0  0  0  0  0  0  0  0
   -0.4940   10.2430   19.2330 H   0  0  0  0  0  0  0  0  0  0  0  0
   -1.6010   11.3680   20.8220 H   0  0  0  0  0  0  0  0  0  0  0  0
   -1.5800   13.4690   20.9430 C   0  0  2  0  0  0  0  0  0  0  0  0
   -0.6130   14.0460   21.9990 C   0  0  0  0  0  0  0  0  0  0  0  0
   -1.0790   13.5170   23.3640 C   0  0  0  0  0  0  0  0  0  0  0  0
   -2.5480   13.3490   23.1290 C   0  0  0  0  0  0  0  0  0  0  0  0
   -3.5480   13.1860   24.0720 C   0  0  0  0  0  0  0  0  0  0  0  0
   -4.8580   13.0060   23.6220 C   0  0  0  0  0  0  0  0  0  0  0  0
   -5.1470   12.9790   22.2480 C   0  0  0  0  0  0  0  0  0  0  0  0
   -4.1290   13.1310   21.3040 C   0  0  0  0  0  0  0  0  0  0  0  0
   -2.8330   13.3200   21.7590 C   0  0  0  0  0  0  0  0  0  0  0  0
   -1.7090   14.1750   20.1150 H   0  0  0  0  0  0  0  0  0  0  0  0
    0.4410   13.8130   21.8090 H   0  0  0  0  0  0  0  0  0  0  0  0
   -0.7050   15.1420   22.0010 H   0  0  0  0  0  0  0  0  0  0  0  0
   -0.6210   12.5490   23.5920 H   0  0  0  0  0  0  0  0  0  0  0  0
   -0.8630   14.2330   24.1620 H   0  0  0  0  0  0  0  0  0  0  0  0
   -3.3270   13.2000   25.1340 H   0  0  0  0  0  0  0  0  0  0  0  0
   -5.6640   12.8820   24.3410 H   0  0  0  0  0  0  0  0  0  0  0  0
   -6.1730   12.8330   21.9170 H   0  0  0  0  0  0  0  0  0  0  0  0
   -4.3500   13.0990   20.2420 H   0  0  0  0  0  0  0  0  0  0  0  0
  1  6  1  0  0  0  0
  2  3  1  0  0  0  0
  2  1  2  0  0  0  0
  3  4  2  0  0  0  0
  4  5  1  0  0  0  0
  5 24  1  0  0  0  0
  6  5  2  0  0  0  0
  6  9  1  0  0  0  0
  7  2  1  0  0  0  0
  8  3  1  0  0  0  0
 10 20  1  0  0  0  0
 11 10  1  0  0  0  0
 11 17  1  0  0  0  0
 12 11  2  0  0  0  0
 13 15  2  0  0  0  0
 13 12  1  0  0  0  0
 14 13  1  0  0  0  0
 15 16  1  0  0  0  0
 16  1  1  0  0  0  0
 16 10  2  0  0  0  0
 18 12  1  0  0  0  0
 19 15  1  0  0  0  0
 20 23  1  0  0  0  0
 21 20  1  0  0  0  0
 22 20  1  0  0  0  0
 24 26  2  0  0  0  0
 24 25  1  0  0  0  0
 25 27  1  0  0  0  0
 28 25  1  0  0  0  0
 29  4  1  0  0  0  0
 29 31  1  0  0  0  0
 29 32  1  0  0  0  0
 30 29  1  0  0  0  0
 32 33  1  0  0  0  0
 33 35  1  0  0  0  0
 34 33  2  0  0  0  0
 35 37  1  0  0  0  0
 35 38  1  0  0  0  0
 36 32  1  0  0  0  0
 38 47  1  6  0  0  0
 38 46  1  0  0  0  0
 38 39  1  0  0  0  0
 39 49  1  0  0  0  0
 39 40  1  0  0  0  0
 40 50  1  0  0  0  0
 40 51  1  0  0  0  0
 41 40  1  0  0  0  0
 41 42  1  0  0  0  0
 42 52  1  0  0  0  0
 43 42  2  0  0  0  0
 43 53  1  0  0  0  0
 44 43  1  0  0  0  0
 45 46  1  0  0  0  0
 45 44  2  0  0  0  0
 46 41  2  0  0  0  0
 48 39  1  0  0  0  0
 54 44  1  0  0  0  0
 55 45  1  0  0  0  0
M  END
>  <MODEL>
11

>  <REMARK>
 VINA RESULT:    -8.575      3.282      9.980
 INTER + INTRA:         -10.955
 INTER:                 -10.622
 INTRA:                  -0.333
 UNBOUND:                 0.377
  Name = 
  6 active torsions:
  status: ('A' for Active; 'I' for Inactive)
    1  A    between atoms: C_1  and  C_2
    2  A    between atoms: C_8  and  C_9
    3  A    between atoms: C_12  and  C_13
    4  A    between atoms: C_13  and  N_14
    5  A    between atoms: N_17  and  C_18
    6  A    between atoms: C_27  and  C_28
                            x       y       z     vdW  Elec       q    Type
                         _______ _______ _______ _____ _____    ______ ____

>  <TORSDO>
F 6

$$$$
=
 OpenBabel07192307433D

 55 58  0  0  1  0  0  0  0  0999 V2000
    3.1890    6.6470   18.5820 C   0  0  0  0  0  0  0  0  0  0  0  0
    2.8020    6.1740   19.8420 C   0  0  0  0  0  0  0  0  0  0  0  0
    1.8590    6.8630   20.6130 C   0  0  0  0  0  0  0  0  0  0  0  0
    1.2630    8.0470   20.1440 C   0  0  0  0  0  0  0  0  0  0  0  0
    1.6990    8.5530   18.9050 C   0  0  0  0  0  0  0  0  0  0  0  0
    2.6300    7.8490   18.1260 C   0  0  0  0  0  0  0  0  0  0  0  0
    3.2280    5.2500   20.2310 H   0  0  0  0  0  0  0  0  0  0  0  0
    1.5830    6.4580   21.5850 H   0  0  0  0  0  0  0  0  0  0  0  0
    2.9300    8.2510   17.1590 H   0  0  0  0  0  0  0  0  0  0  0  0
    3.8950    4.6480   17.2020 C   0  0  0  0  0  0  0  0  0  0  0  0
    4.8730    4.0080   16.4180 C   0  0  0  0  0  0  0  0  0  0  0  0
    6.1190    4.5980   16.2130 C   0  0  0  0  0  0  0  0  0  0  0  0
    6.3900    5.8310   16.7850 C   0  0  0  0  0  0  0  0  0  0  0  0
    7.5870    6.4000   16.5900 F   0  0  0  0  0  0  0  0  0  0  0  0
    5.4370    6.4890   17.5540 C   0  0  0  0  0  0  0  0  0  0  0  0
    4.1720    5.9140   17.7720 C   0  0  0  0  0  0  0  0  0  0  0  0
    4.6670    3.0400   15.9650 H   0  0  0  0  0  0  0  0  0  0  0  0
    6.8760    4.1040   15.6130 H   0  0  0  0  0  0  0  0  0  0  0  0
    5.6870    7.4580   17.9740 H   0  0  0  0  0  0  0  0  0  0  0  0
    2.5630    3.9680   17.3890 C   0  0  0  0  0  0  0  0  0  0  0  0
    2.6880    2.8980   17.5880 H   0  0  0  0  0  0  0  0  0  0  0  0
    1.9540    4.0740   16.4860 H   0  0  0  0  0  0  0  0  0  0  0  0
    2.0260    4.3890   18.2460 H   0  0  0  0  0  0  0  0  0  0  0  0
    1.2150    9.8340   18.3440 C   0  0  0  0  0  0  0  0  0  0  0  0
   -0.0240    9.8110   17.7710 N   0  0  0  0  0  0  0  0  0  0  0  0
    1.8690   10.8630   18.4440 O   0  0  0  0  0  0  0  0  0  0  0  0
   -0.4170   10.7040   17.5020 H   0  0  0  0  0  0  0  0  0  0  0  0
   -0.6630    9.0370   17.8970 H   0  0  0  0  0  0  0  0  0  0  0  0
    0.2160    8.7500   20.9750 C   0  0  0  0  0  0  0  0  0  0  0  0
    0.0620    8.2490   21.9360 H   0  0  0  0  0  0  0  0  0  0  0  0
   -0.7350    8.7590   20.4310 H   0  0  0  0  0  0  0  0  0  0  0  0
    0.5960   10.1090   21.3040 N   0  0  0  0  0  0  0  0  0  0  0  0
   -0.3000   11.1230   21.0780 C   0  0  0  0  0  0  0  0  0  0  0  0
   -1.3750   10.9790   20.5150 O   0  0  0  0  0  0  0  0  0  0  0  0
    0.1690   12.3130   21.5600 N   0  0  0  0  0  0  0  0  0  0  0  0
    1.1250   10.2210   22.1560 H   0  0  0  0  0  0  0  0  0  0  0  0
    1.1710   12.4000   21.6380 H   0  0  0  0  0  0  0  0  0  0  0  0
   -0.5790   13.5350   21.3610 C   0  0  2  0  0  0  0  0  0  0  0  0
    0.3110   14.7950   21.3690 C   0  0  0  0  0  0  0  0  0  0  0  0
    0.4000   15.2670   22.8290 C   0  0  0  0  0  0  0  0  0  0  0  0
   -0.9080   14.7870   23.3740 C   0  0  0  0  0  0  0  0  0  0  0  0
   -1.5320   15.1680   24.5500 C   0  0  0  0  0  0  0  0  0  0  0  0
   -2.7420   14.5560   24.8840 C   0  0  0  0  0  0  0  0  0  0  0  0
   -3.3020   13.5720   24.0530 C   0  0  0  0  0  0  0  0  0  0  0  0
   -2.6590   13.1860   22.8760 C   0  0  0  0  0  0  0  0  0  0  0  0
   -1.4630   13.8050   22.5450 C   0  0  0  0  0  0  0  0  0  0  0  0
   -1.1480   13.4730   20.4260 H   0  0  0  0  0  0  0  0  0  0  0  0
    1.3020   14.6410   20.9280 H   0  0  0  0  0  0  0  0  0  0  0  0
   -0.1840   15.5810   20.7800 H   0  0  0  0  0  0  0  0  0  0  0  0
    1.2290   14.7780   23.3530 H   0  0  0  0  0  0  0  0  0  0  0  0
    0.5060   16.3540   22.8900 H   0  0  0  0  0  0  0  0  0  0  0  0
   -1.0980   15.9220   25.1970 H   0  0  0  0  0  0  0  0  0  0  0  0
   -3.2560   14.8410   25.7990 H   0  0  0  0  0  0  0  0  0  0  0  0
   -4.2440   13.1050   24.3330 H   0  0  0  0  0  0  0  0  0  0  0  0
   -3.0860   12.4180   22.2380 H   0  0  0  0  0  0  0  0  0  0  0  0
  1  2  1  0  0  0  0
  2  7  1  0  0  0  0
  2  3  2  0  0  0  0
  3  8  1  0  0  0  0
  4  3  1  0  0  0  0
  4 29  1  0  0  0  0
  5  4  2  0  0  0  0
  6  1  2  0  0  0  0
  6  5  1  0  0  0  0
  9  6  1  0  0  0  0
 10 20  1  0  0  0  0
 10 16  1  0  0  0  0
 11 10  2  0  0  0  0
 12 11  1  0  0  0  0
 12 13  2  0  0  0  0
 13 15  1  0  0  0  0
 14 13  1  0  0  0  0
 15 16  2  0  0  0  0
 15 19  1  0  0  0  0
 16  1  1  0  0  0  0
 17 11  1  0  0  0  0
 18 12  1  0  0  0  0
 20 21  1  0  0  0  0
 20 23  1  0  0  0  0
 22 20  1  0  0  0  0
 24 26  2  0  0  0  0
 24  5  1  0  0  0  0
 25 28  1  0  0  0  0
 25 24  1  0  0  0  0
 27 25  1  0  0  0  0
 29 32  1  0  0  0  0
 29 30  1  0  0  0  0
 31 29  1  0  0  0  0
 32 36  1  0  0  0  0
 33 32  1  0  0  0  0
 33 35  1  0  0  0  0
 34 33  2  0  0  0  0
 35 37  1  0  0  0  0
 38 47  1  6  0  0  0
 38 39  1  0  0  0  0
 38 35  1  0  0  0  0
 38 46  1  0  0  0  0
 39 40  1  0  0  0  0
 40 51  1  0  0  0  0
 40 50  1  0  0  0  0
 40 41  1  0  0  0  0
 41 42  1  0  0  0  0
 42 43  2  0  0  0  0
 42 52  1  0  0  0  0
 43 53  1  0  0  0  0
 44 54  1  0  0  0  0
 44 43  1  0  0  0  0
 45 44  2  0  0  0  0
 46 45  1  0  0  0  0
 46 41  2  0  0  0  0
 48 39  1  0  0  0  0
 49 39  1  0  0  0  0
 55 45  1  0  0  0  0
M  END
>  <MODEL>
12

>  <REMARK>
 VINA RESULT:    -8.558      3.430     10.203
 INTER + INTRA:         -10.933
 INTER:                 -10.089
 INTRA:                  -0.845
 UNBOUND:                 0.377
  Name = 
  6 active torsions:
  status: ('A' for Active; 'I' for Inactive)
    1  A    between atoms: C_1  and  C_2
    2  A    between atoms: C_8  and  C_9
    3  A    between atoms: C_12  and  C_13
    4  A    between atoms: C_13  and  N_14
    5  A    between atoms: N_17  and  C_18
    6  A    between atoms: C_27  and  C_28
                            x       y       z     vdW  Elec       q    Type
                         _______ _______ _______ _____ _____    ______ ____

>  <TORSDO>
F 6

$$$$
=
 OpenBabel07192307433D

 55 58  0  0  1  0  0  0  0  0999 V2000
    3.8620    5.1180   18.7550 C   0  0  0  0  0  0  0  0  0  0  0  0
    3.6010    6.2290   17.9430 C   0  0  0  0  0  0  0  0  0  0  0  0
    4.6450    6.9670   17.3750 C   0  0  0  0  0  0  0  0  0  0  0  0
    5.9880    6.6130   17.5930 C   0  0  0  0  0  0  0  0  0  0  0  0
    6.2480    5.5340   18.4580 C   0  0  0  0  0  0  0  0  0  0  0  0
    5.1980    4.7840   19.0110 C   0  0  0  0  0  0  0  0  0  0  0  0
    2.5730    6.5230   17.7370 H   0  0  0  0  0  0  0  0  0  0  0  0
    4.3980    7.8210   16.7460 H   0  0  0  0  0  0  0  0  0  0  0  0
    5.4300    3.9370   19.6570 H   0  0  0  0  0  0  0  0  0  0  0  0
    1.7070    3.8050   18.5610 C   0  0  0  0  0  0  0  0  0  0  0  0
    0.6950    3.0500   19.1810 C   0  0  0  0  0  0  0  0  0  0  0  0
    0.7080    2.8380   20.5580 C   0  0  0  0  0  0  0  0  0  0  0  0
    1.7340    3.3740   21.3190 C   0  0  0  0  0  0  0  0  0  0  0  0
    1.7480    3.1720   22.6440 F   0  0  0  0  0  0  0  0  0  0  0  0
    2.7520    4.1140   20.7290 C   0  0  0  0  0  0  0  0  0  0  0  0
    2.7610    4.3390   19.3410 C   0  0  0  0  0  0  0  0  0  0  0  0
   -0.1140    2.6250   18.5890 H   0  0  0  0  0  0  0  0  0  0  0  0
   -0.0750    2.2590   21.0390 H   0  0  0  0  0  0  0  0  0  0  0  0
    3.5430    4.5070   21.3620 H   0  0  0  0  0  0  0  0  0  0  0  0
    1.6480    4.0020   17.0680 C   0  0  0  0  0  0  0  0  0  0  0  0
    2.4850    4.6150   16.7140 H   0  0  0  0  0  0  0  0  0  0  0  0
    0.7190    4.5090   16.7890 H   0  0  0  0  0  0  0  0  0  0  0  0
    1.7150    3.0420   16.5440 H   0  0  0  0  0  0  0  0  0  0  0  0
    7.6170    5.1200   18.8380 C   0  0  0  0  0  0  0  0  0  0  0  0
    8.0460    5.5160   20.0720 N   0  0  0  0  0  0  0  0  0  0  0  0
    8.2980    4.4160   18.1050 O   0  0  0  0  0  0  0  0  0  0  0  0
    8.9260    5.1310   20.3930 H   0  0  0  0  0  0  0  0  0  0  0  0
    7.4140    5.8850   20.7700 H   0  0  0  0  0  0  0  0  0  0  0  0
    7.0960    7.4000   16.9340 C   0  0  0  0  0  0  0  0  0  0  0  0
    6.9210    7.5210   15.8600 H   0  0  0  0  0  0  0  0  0  0  0  0
    8.0480    6.8750   17.0740 H   0  0  0  0  0  0  0  0  0  0  0  0
    7.2060    8.7450   17.4620 N   0  0  0  0  0  0  0  0  0  0  0  0
    8.3380    9.0990   18.1490 C   0  0  0  0  0  0  0  0  0  0  0  0
    9.2350    8.3230   18.4460 O   0  0  0  0  0  0  0  0  0  0  0  0
    8.3290   10.4300   18.4640 N   0  0  0  0  0  0  0  0  0  0  0  0
    6.8490    9.4780   16.8670 H   0  0  0  0  0  0  0  0  0  0  0  0
    7.4230   10.8680   18.5280 H   0  0  0  0  0  0  0  0  0  0  0  0
    9.3920   11.0060   19.2580 C   0  0  2  0  0  0  0  0  0  0  0  0
    9.1590   10.8540   20.7770 C   0  0  0  0  0  0  0  0  0  0  0  0
    8.3600   12.0850   21.2290 C   0  0  0  0  0  0  0  0  0  0  0  0
    8.8120   13.1120   20.2380 C   0  0  0  0  0  0  0  0  0  0  0  0
    8.6710   14.4870   20.3100 C   0  0  0  0  0  0  0  0  0  0  0  0
    9.1380   15.2560   19.2420 C   0  0  0  0  0  0  0  0  0  0  0  0
    9.7260   14.6470   18.1220 C   0  0  0  0  0  0  0  0  0  0  0  0
    9.8530   13.2580   18.0530 C   0  0  0  0  0  0  0  0  0  0  0  0
    9.3960   12.5010   19.1210 C   0  0  0  0  0  0  0  0  0  0  0  0
   10.3520   10.5620   18.9720 H   0  0  0  0  0  0  0  0  0  0  0  0
    8.6630    9.9180   21.0580 H   0  0  0  0  0  0  0  0  0  0  0  0
   10.1340   10.8670   21.2860 H   0  0  0  0  0  0  0  0  0  0  0  0
    7.2820   11.9160   21.1300 H   0  0  0  0  0  0  0  0  0  0  0  0
    8.6040   12.3620   22.2580 H   0  0  0  0  0  0  0  0  0  0  0  0
    8.2110   14.9590   21.1710 H   0  0  0  0  0  0  0  0  0  0  0  0
    9.0440   16.3390   19.2760 H   0  0  0  0  0  0  0  0  0  0  0  0
   10.0800   15.2640   17.2990 H   0  0  0  0  0  0  0  0  0  0  0  0
   10.2970   12.7860   17.1820 H   0  0  0  0  0  0  0  0  0  0  0  0
  1  6  1  0  0  0  0
  1 16  1  0  0  0  0
  2  1  2  0  0  0  0
  3  4  2  0  0  0  0
  3  2  1  0  0  0  0
  4  5  1  0  0  0  0
  5 24  1  0  0  0  0
  5  6  2  0  0  0  0
  6  9  1  0  0  0  0
  7  2  1  0  0  0  0
  8  3  1  0  0  0  0
 10 11  2  0  0  0  0
 10 16  1  0  0  0  0
 11 12  1  0  0  0  0
 12 18  1  0  0  0  0
 12 13  2  0  0  0  0
 13 14  1  0  0  0  0
 15 13  1  0  0  0  0
 15 19  1  0  0  0  0
 16 15  2  0  0  0  0
 17 11  1  0  0  0  0
 20 10  1  0  0  0  0
 21 20  1  0  0  0  0
 22 20  1  0  0  0  0
 23 20  1  0  0  0  0
 24 25  1  0  0  0  0
 25 27  1  0  0  0  0
 25 28  1  0  0  0  0
 26 24  2  0  0  0  0
 29 31  1  0  0  0  0
 29 32  1  0  0  0  0
 29  4  1  0  0  0  0
 30 29  1  0  0  0  0
 32 33  1  0  0  0  0
 33 34  2  0  0  0  0
 33 35  1  0  0  0  0
 35 37  1  0  0  0  0
 35 38  1  0  0  0  0
 36 32  1  0  0  0  0
 38 47  1  6  0  0  0
 38 39  1  0  0  0  0
 39 48  1  0  0  0  0
 39 40  1  0  0  0  0
 39 49  1  0  0  0  0
 40 51  1  0  0  0  0
 41 42  1  0  0  0  0
 41 40  1  0  0  0  0
 42 52  1  0  0  0  0
 43 53  1  0  0  0  0
 43 42  2  0  0  0  0
 44 43  1  0  0  0  0
 45 44  2  0  0  0  0
 45 46  1  0  0  0  0
 46 38  1  0  0  0  0
 46 41  2  0  0  0  0
 50 40  1  0  0  0  0
 54 44  1  0  0  0  0
 55 45  1  0  0  0  0
M  END
>  <MODEL>
13

>  <REMARK>
 VINA RESULT:    -8.525      7.349      9.487
 INTER + INTRA:         -10.889
 INTER:                 -10.016
 INTRA:                  -0.873
 UNBOUND:                 0.377
  Name = 
  6 active torsions:
  status: ('A' for Active; 'I' for Inactive)
    1  A    between atoms: C_1  and  C_2
    2  A    between atoms: C_8  and  C_9
    3  A    between atoms: C_12  and  C_13
    4  A    between atoms: C_13  and  N_14
    5  A    between atoms: N_17  and  C_18
    6  A    between atoms: C_27  and  C_28
                            x       y       z     vdW  Elec       q    Type
                         _______ _______ _______ _____ _____    ______ ____

>  <TORSDO>
F 6

$$$$
=
 OpenBabel07192307433D

 55 58  0  0  1  0  0  0  0  0999 V2000
   -1.1930   12.1410   22.1190 C   0  0  0  0  0  0  0  0  0  0  0  0
   -0.5940   10.9010   22.3760 C   0  0  0  0  0  0  0  0  0  0  0  0
    0.2220   10.2830   21.4220 C   0  0  0  0  0  0  0  0  0  0  0  0
    0.4750   10.8890   20.1800 C   0  0  0  0  0  0  0  0  0  0  0  0
   -0.1760   12.1050   19.9000 C   0  0  0  0  0  0  0  0  0  0  0  0
   -0.9790   12.7320   20.8660 C   0  0  0  0  0  0  0  0  0  0  0  0
   -0.7520   10.4090   23.3350 H   0  0  0  0  0  0  0  0  0  0  0  0
    0.6710    9.3210   21.6660 H   0  0  0  0  0  0  0  0  0  0  0  0
   -1.4500   13.6860   20.6320 H   0  0  0  0  0  0  0  0  0  0  0  0
   -1.7650   14.0840   23.6350 C   0  0  0  0  0  0  0  0  0  0  0  0
   -2.6300   14.6580   24.5850 C   0  0  0  0  0  0  0  0  0  0  0  0
   -3.7450   13.9610   25.0460 C   0  0  0  0  0  0  0  0  0  0  0  0
   -4.0030   12.6910   24.5570 C   0  0  0  0  0  0  0  0  0  0  0  0
   -5.0740   12.0180   24.9990 F   0  0  0  0  0  0  0  0  0  0  0  0
   -3.1700   12.1050   23.6100 C   0  0  0  0  0  0  0  0  0  0  0  0
   -2.0410   12.7910   23.1280 C   0  0  0  0  0  0  0  0  0  0  0  0
   -2.4350   15.6570   24.9730 H   0  0  0  0  0  0  0  0  0  0  0  0
   -4.4110   14.4010   25.7820 H   0  0  0  0  0  0  0  0  0  0  0  0
   -3.4160   11.1120   23.2450 H   0  0  0  0  0  0  0  0  0  0  0  0
   -0.5760   14.8820   23.1670 C   0  0  0  0  0  0  0  0  0  0  0  0
    0.2140   14.2280   22.7800 H   0  0  0  0  0  0  0  0  0  0  0  0
   -0.1570   15.4600   23.9970 H   0  0  0  0  0  0  0  0  0  0  0  0
   -0.8550   15.5580   22.3520 H   0  0  0  0  0  0  0  0  0  0  0  0
   -0.0630   12.7970   18.5970 C   0  0  0  0  0  0  0  0  0  0  0  0
   -1.1060   12.6290   17.7330 N   0  0  0  0  0  0  0  0  0  0  0  0
    0.8880   13.5210   18.3380 O   0  0  0  0  0  0  0  0  0  0  0  0
   -1.1000   13.1990   16.8960 H   0  0  0  0  0  0  0  0  0  0  0  0
   -1.9920   12.2370   18.0250 H   0  0  0  0  0  0  0  0  0  0  0  0
    1.3940   10.2230   19.1830 C   0  0  0  0  0  0  0  0  0  0  0  0
    2.4000   10.6530   19.2130 H   0  0  0  0  0  0  0  0  0  0  0  0
    0.9910   10.3520   18.1730 H   0  0  0  0  0  0  0  0  0  0  0  0
    1.5700    8.8100   19.4560 N   0  0  0  0  0  0  0  0  0  0  0  0
    1.9790    7.9840   18.4410 C   0  0  0  0  0  0  0  0  0  0  0  0
    2.1120    8.3340   17.2780 O   0  0  0  0  0  0  0  0  0  0  0  0
    2.2140    6.7180   18.9010 N   0  0  0  0  0  0  0  0  0  0  0  0
    1.9800    8.5860   20.3500 H   0  0  0  0  0  0  0  0  0  0  0  0
    1.7200    6.4470   19.7370 H   0  0  0  0  0  0  0  0  0  0  0  0
    2.5810    5.6590   17.9860 C   0  0  2  0  0  0  0  0  0  0  0  0
    1.3690    4.8400   17.4950 C   0  0  0  0  0  0  0  0  0  0  0  0
    1.1700    3.6950   18.5000 C   0  0  0  0  0  0  0  0  0  0  0  0
    2.5680    3.4860   18.9910 C   0  0  0  0  0  0  0  0  0  0  0  0
    3.0740    2.4020   19.6860 C   0  0  0  0  0  0  0  0  0  0  0  0
    4.4130    2.4370   20.0820 C   0  0  0  0  0  0  0  0  0  0  0  0
    5.2180    3.5500   19.7920 C   0  0  0  0  0  0  0  0  0  0  0  0
    4.6950    4.6450   19.1010 C   0  0  0  0  0  0  0  0  0  0  0  0
    3.3680    4.5990   18.7020 C   0  0  0  0  0  0  0  0  0  0  0  0
    3.1310    6.0780   17.1350 H   0  0  0  0  0  0  0  0  0  0  0  0
    0.4570    5.4320   17.3640 H   0  0  0  0  0  0  0  0  0  0  0  0
    1.6120    4.4030   16.5150 H   0  0  0  0  0  0  0  0  0  0  0  0
    0.5220    4.0030   19.3280 H   0  0  0  0  0  0  0  0  0  0  0  0
    0.7600    2.8050   18.0140 H   0  0  0  0  0  0  0  0  0  0  0  0
    2.4530    1.5440   19.9180 H   0  0  0  0  0  0  0  0  0  0  0  0
    4.8370    1.5950   20.6250 H   0  0  0  0  0  0  0  0  0  0  0  0
    6.2570    3.5590   20.1120 H   0  0  0  0  0  0  0  0  0  0  0  0
    5.3140    5.5100   18.8850 H   0  0  0  0  0  0  0  0  0  0  0  0
  1  2  1  0  0  0  0
  1 16  1  0  0  0  0
  2  7  1  0  0  0  0
  3  8  1  0  0  0  0
  3  2  2  0  0  0  0
  4  3  1  0  0  0  0
  5  4  2  0  0  0  0
  5  6  1  0  0  0  0
  6  1  2  0  0  0  0
  9  6  1  0  0  0  0
 10 11  1  0  0  0  0
 11 17  1  0  0  0  0
 11 12  2  0  0  0  0
 12 18  1  0  0  0  0
 13 14  1  0  0  0  0
 13 12  1  0  0  0  0
 15 13  2  0  0  0  0
 16 15  1  0  0  0  0
 16 10  2  0  0  0  0
 19 15  1  0  0  0  0
 20 10  1  0  0  0  0
 20 22  1  0  0  0  0
 21 20  1  0  0  0  0
 23 20  1  0  0  0  0
 24  5  1  0  0  0  0
 25 28  1  0  0  0  0
 25 24  1  0  0  0  0
 26 24  2  0  0  0  0
 27 25  1  0  0  0  0
 29 30  1  0  0  0  0
 29 32  1  0  0  0  0
 29  4  1  0  0  0  0
 31 29  1  0  0  0  0
 32 36  1  0  0  0  0
 33 35  1  0  0  0  0
 33 32  1  0  0  0  0
 34 33  2  0  0  0  0
 35 37  1  0  0  0  0
 38 47  1  6  0  0  0
 38 46  1  0  0  0  0
 38 35  1  0  0  0  0
 39 38  1  0  0  0  0
 39 40  1  0  0  0  0
 40 41  1  0  0  0  0
 40 50  1  0  0  0  0
 41 42  1  0  0  0  0
 42 52  1  0  0  0  0
 42 43  2  0  0  0  0
 43 53  1  0  0  0  0
 44 43  1  0  0  0  0
 44 54  1  0  0  0  0
 45 44  2  0  0  0  0
 46 41  2  0  0  0  0
 46 45  1  0  0  0  0
 48 39  1  0  0  0  0
 49 39  1  0  0  0  0
 51 40  1  0  0  0  0
 55 45  1  0  0  0  0
M  END
>  <MODEL>
14

>  <REMARK>
 VINA RESULT:    -8.506      1.544      2.181
 INTER + INTRA:         -10.864
 INTER:                 -10.148
 INTRA:                  -0.716
 UNBOUND:                 0.377
  Name = 
  6 active torsions:
  status: ('A' for Active; 'I' for Inactive)
    1  A    between atoms: C_1  and  C_2
    2  A    between atoms: C_8  and  C_9
    3  A    between atoms: C_12  and  C_13
    4  A    between atoms: C_13  and  N_14
    5  A    between atoms: N_17  and  C_18
    6  A    between atoms: C_27  and  C_28
                            x       y       z     vdW  Elec       q    Type
                         _______ _______ _______ _____ _____    ______ ____

>  <TORSDO>
F 6

$$$$
=
 OpenBabel07192307433D

 55 58  0  0  1  0  0  0  0  0999 V2000
    3.9800    5.6460   18.2170 C   0  0  0  0  0  0  0  0  0  0  0  0
    3.5820    6.9870   18.2860 C   0  0  0  0  0  0  0  0  0  0  0  0
    2.6350    7.4100   19.2250 C   0  0  0  0  0  0  0  0  0  0  0  0
    2.0580    6.5060   20.1340 C   0  0  0  0  0  0  0  0  0  0  0  0
    2.4140    5.1490   20.0210 C   0  0  0  0  0  0  0  0  0  0  0  0
    3.3790    4.7310   19.0920 C   0  0  0  0  0  0  0  0  0  0  0  0
    4.0210    7.7200   17.6100 H   0  0  0  0  0  0  0  0  0  0  0  0
    2.3580    8.4630   19.2480 H   0  0  0  0  0  0  0  0  0  0  0  0
    3.6540    3.6780   19.0440 H   0  0  0  0  0  0  0  0  0  0  0  0
    6.3640    5.1370   17.5400 C   0  0  0  0  0  0  0  0  0  0  0  0
    7.2710    4.6890   16.5620 C   0  0  0  0  0  0  0  0  0  0  0  0
    6.8270    4.3330   15.2900 C   0  0  0  0  0  0  0  0  0  0  0  0
    5.4760    4.4180   14.9930 C   0  0  0  0  0  0  0  0  0  0  0  0
    5.0470    4.0770   13.7700 F   0  0  0  0  0  0  0  0  0  0  0  0
    4.5590    4.8460   15.9450 C   0  0  0  0  0  0  0  0  0  0  0  0
    4.9830    5.2080   17.2360 C   0  0  0  0  0  0  0  0  0  0  0  0
    8.3340    4.6180   16.7880 H   0  0  0  0  0  0  0  0  0  0  0  0
    7.5250    3.9910   14.5330 H   0  0  0  0  0  0  0  0  0  0  0  0
    3.5080    4.8880   15.6730 H   0  0  0  0  0  0  0  0  0  0  0  0
    6.8960    5.5060   18.9010 C   0  0  0  0  0  0  0  0  0  0  0  0
    6.7310    4.7000   19.6240 H   0  0  0  0  0  0  0  0  0  0  0  0
    6.3900    6.4020   19.2750 H   0  0  0  0  0  0  0  0  0  0  0  0
    7.9760    5.6830   18.8650 H   0  0  0  0  0  0  0  0  0  0  0  0
    1.8110    4.0880   20.8590 C   0  0  0  0  0  0  0  0  0  0  0  0
    0.6590    3.5280   20.3850 N   0  0  0  0  0  0  0  0  0  0  0  0
    2.3500    3.7010   21.8860 O   0  0  0  0  0  0  0  0  0  0  0  0
    0.3110    2.7170   20.8810 H   0  0  0  0  0  0  0  0  0  0  0  0
    0.3420    3.6690   19.4350 H   0  0  0  0  0  0  0  0  0  0  0  0
    1.0690    6.9940   21.1660 C   0  0  0  0  0  0  0  0  0  0  0  0
    1.5730    7.4830   22.0060 H   0  0  0  0  0  0  0  0  0  0  0  0
    0.4950    6.1440   21.5510 H   0  0  0  0  0  0  0  0  0  0  0  0
    0.1600    7.9870   20.6300 N   0  0  0  0  0  0  0  0  0  0  0  0
    0.3390    9.3040   20.9680 C   0  0  0  0  0  0  0  0  0  0  0  0
    1.1590    9.7010   21.7830 O   0  0  0  0  0  0  0  0  0  0  0  0
   -0.5220   10.1120   20.2790 N   0  0  0  0  0  0  0  0  0  0  0  0
   -0.1180    7.8510   19.6700 H   0  0  0  0  0  0  0  0  0  0  0  0
   -1.3760    9.6830   19.9560 H   0  0  0  0  0  0  0  0  0  0  0  0
   -0.5620   11.5350   20.5370 C   0  0  2  0  0  0  0  0  0  0  0  0
   -0.0970   11.9030   21.9620 C   0  0  0  0  0  0  0  0  0  0  0  0
   -1.3420   11.8600   22.8600 C   0  0  0  0  0  0  0  0  0  0  0  0
   -2.4230   12.2060   21.8840 C   0  0  0  0  0  0  0  0  0  0  0  0
   -3.7180   12.6120   22.1550 C   0  0  0  0  0  0  0  0  0  0  0  0
   -4.5760   12.8480   21.0790 C   0  0  0  0  0  0  0  0  0  0  0  0
   -4.1370   12.6650   19.7580 C   0  0  0  0  0  0  0  0  0  0  0  0
   -2.8320   12.2430   19.4950 C   0  0  0  0  0  0  0  0  0  0  0  0
   -1.9830   12.0210   20.5680 C   0  0  0  0  0  0  0  0  0  0  0  0
    0.0400   12.0640   19.7890 H   0  0  0  0  0  0  0  0  0  0  0  0
    0.7060   11.2630   22.3450 H   0  0  0  0  0  0  0  0  0  0  0  0
    0.2880   12.9330   21.9520 H   0  0  0  0  0  0  0  0  0  0  0  0
   -1.5070   10.8540   23.2620 H   0  0  0  0  0  0  0  0  0  0  0  0
   -1.2690   12.5830   23.6770 H   0  0  0  0  0  0  0  0  0  0  0  0
   -4.0620   12.7470   23.1750 H   0  0  0  0  0  0  0  0  0  0  0  0
   -5.5970   13.1730   21.2640 H   0  0  0  0  0  0  0  0  0  0  0  0
   -4.8210   12.8500   18.9340 H   0  0  0  0  0  0  0  0  0  0  0  0
   -2.4940   12.0920   18.4740 H   0  0  0  0  0  0  0  0  0  0  0  0
  1  2  2  0  0  0  0
  1  6  1  0  0  0  0
  2  3  1  0  0  0  0
  3  8  1  0  0  0  0
  3  4  2  0  0  0  0
  4 29  1  0  0  0  0
  5  4  1  0  0  0  0
  5 24  1  0  0  0  0
  6  5  2  0  0  0  0
  7  2  1  0  0  0  0
  9  6  1  0  0  0  0
 10 20  1  0  0  0  0
 11 17  1  0  0  0  0
 11 10  2  0  0  0  0
 12 11  1  0  0  0  0
 13 12  2  0  0  0  0
 13 15  1  0  0  0  0
 14 13  1  0  0  0  0
 15 16  2  0  0  0  0
 16 10  1  0  0  0  0
 16  1  1  0  0  0  0
 18 12  1  0  0  0  0
 19 15  1  0  0  0  0
 20 22  1  0  0  0  0
 20 21  1  0  0  0  0
 23 20  1  0  0  0  0
 24 26  2  0  0  0  0
 25 24  1  0  0  0  0
 25 27  1  0  0  0  0
 28 25  1  0  0  0  0
 29 31  1  0  0  0  0
 29 30  1  0  0  0  0
 32 33  1  0  0  0  0
 32 29  1  0  0  0  0
 33 34  2  0  0  0  0
 35 38  1  0  0  0  0
 35 33  1  0  0  0  0
 36 32  1  0  0  0  0
 37 35  1  0  0  0  0
 38 47  1  6  0  0  0
 38 46  1  0  0  0  0
 38 39  1  0  0  0  0
 39 48  1  0  0  0  0
 39 40  1  0  0  0  0
 40 50  1  0  0  0  0
 40 51  1  0  0  0  0
 41 42  1  0  0  0  0
 41 40  1  0  0  0  0
 42 52  1  0  0  0  0
 43 53  1  0  0  0  0
 43 42  2  0  0  0  0
 44 43  1  0  0  0  0
 45 44  2  0  0  0  0
 45 46  1  0  0  0  0
 46 41  2  0  0  0  0
 49 39  1  0  0  0  0
 54 44  1  0  0  0  0
 55 45  1  0  0  0  0
M  END
>  <MODEL>
15

>  <REMARK>
 VINA RESULT:    -8.478      3.959     10.532
 INTER + INTRA:         -10.827
 INTER:                 -10.742
 INTRA:                  -0.085
 UNBOUND:                 0.377
  Name = 
  6 active torsions:
  status: ('A' for Active; 'I' for Inactive)
    1  A    between atoms: C_1  and  C_2
    2  A    between atoms: C_8  and  C_9
    3  A    between atoms: C_12  and  C_13
    4  A    between atoms: C_13  and  N_14
    5  A    between atoms: N_17  and  C_18
    6  A    between atoms: C_27  and  C_28
                            x       y       z     vdW  Elec       q    Type
                         _______ _______ _______ _____ _____    ______ ____

>  <TORSDO>
F 6

$$$$
=
 OpenBabel07192307433D

 55 58  0  0  1  0  0  0  0  0999 V2000
   -1.2330   11.7180   20.0380 C   0  0  0  0  0  0  0  0  0  0  0  0
   -1.3500   10.4100   19.5540 C   0  0  0  0  0  0  0  0  0  0  0  0
   -0.3200    9.8220   18.8100 C   0  0  0  0  0  0  0  0  0  0  0  0
    0.8670   10.5220   18.5330 C   0  0  0  0  0  0  0  0  0  0  0  0
    0.9560   11.8570   18.9690 C   0  0  0  0  0  0  0  0  0  0  0  0
   -0.0700   12.4370   19.7310 C   0  0  0  0  0  0  0  0  0  0  0  0
   -2.2470    9.8290   19.7630 H   0  0  0  0  0  0  0  0  0  0  0  0
   -0.4500    8.8010   18.4560 H   0  0  0  0  0  0  0  0  0  0  0  0
    0.0380   13.4640   20.0770 H   0  0  0  0  0  0  0  0  0  0  0  0
   -3.6120   12.5360   20.3060 C   0  0  0  0  0  0  0  0  0  0  0  0
   -4.6080   13.1040   21.1220 C   0  0  0  0  0  0  0  0  0  0  0  0
   -4.3230   13.4830   22.4320 C   0  0  0  0  0  0  0  0  0  0  0  0
   -3.0470   13.2890   22.9340 C   0  0  0  0  0  0  0  0  0  0  0  0
   -2.7700   13.6520   24.1940 F   0  0  0  0  0  0  0  0  0  0  0  0
   -2.0480   12.7190   22.1520 C   0  0  0  0  0  0  0  0  0  0  0  0
   -2.3130   12.3270   20.8280 C   0  0  0  0  0  0  0  0  0  0  0  0
   -5.6140   13.2590   20.7340 H   0  0  0  0  0  0  0  0  0  0  0  0
   -5.0890   13.9250   23.0620 H   0  0  0  0  0  0  0  0  0  0  0  0
   -1.0640   12.5760   22.5890 H   0  0  0  0  0  0  0  0  0  0  0  0
   -3.9730   12.1410   18.8960 C   0  0  0  0  0  0  0  0  0  0  0  0
   -5.0580   12.0560   18.7730 H   0  0  0  0  0  0  0  0  0  0  0  0
   -3.5290   11.1710   18.6500 H   0  0  0  0  0  0  0  0  0  0  0  0
   -3.6300   12.8950   18.1790 H   0  0  0  0  0  0  0  0  0  0  0  0
    2.1150   12.7270   18.6640 C   0  0  0  0  0  0  0  0  0  0  0  0
    2.3580   12.9640   17.3420 N   0  0  0  0  0  0  0  0  0  0  0  0
    2.7760   13.2450   19.5530 O   0  0  0  0  0  0  0  0  0  0  0  0
    3.0640   13.6570   17.1270 H   0  0  0  0  0  0  0  0  0  0  0  0
    1.6850   12.7420   16.6200 H   0  0  0  0  0  0  0  0  0  0  0  0
    1.9820    9.8510   17.7650 C   0  0  0  0  0  0  0  0  0  0  0  0
    2.9450    9.9640   18.2730 H   0  0  0  0  0  0  0  0  0  0  0  0
    2.0590   10.3000   16.7690 H   0  0  0  0  0  0  0  0  0  0  0  0
    1.7780    8.4220   17.6350 N   0  0  0  0  0  0  0  0  0  0  0  0
    2.7720    7.5700   18.0410 C   0  0  0  0  0  0  0  0  0  0  0  0
    3.8790    7.9290   18.4150 O   0  0  0  0  0  0  0  0  0  0  0  0
    2.3660    6.2660   17.9660 N   0  0  0  0  0  0  0  0  0  0  0  0
    0.8490    8.0920   17.8530 H   0  0  0  0  0  0  0  0  0  0  0  0
    1.6300    6.0650   17.3060 H   0  0  0  0  0  0  0  0  0  0  0  0
    3.2820    5.1900   18.2720 C   0  0  2  0  0  0  0  0  0  0  0  0
    3.4080    4.1620   17.1280 C   0  0  0  0  0  0  0  0  0  0  0  0
    2.3220    3.1000   17.3640 C   0  0  0  0  0  0  0  0  0  0  0  0
    2.1860    3.1430   18.8540 C   0  0  0  0  0  0  0  0  0  0  0  0
    1.5810    2.2140   19.6810 C   0  0  0  0  0  0  0  0  0  0  0  0
    1.5350    2.4790   21.0510 C   0  0  0  0  0  0  0  0  0  0  0  0
    2.0800    3.6650   21.5720 C   0  0  0  0  0  0  0  0  0  0  0  0
    2.6770    4.6020   20.7270 C   0  0  0  0  0  0  0  0  0  0  0  0
    2.7280    4.3270   19.3690 C   0  0  0  0  0  0  0  0  0  0  0  0
    4.2660    5.6020   18.5270 H   0  0  0  0  0  0  0  0  0  0  0  0
    3.3390    4.6010   16.1270 H   0  0  0  0  0  0  0  0  0  0  0  0
    4.3910    3.6740   17.1980 H   0  0  0  0  0  0  0  0  0  0  0  0
    1.3770    3.3880   16.8910 H   0  0  0  0  0  0  0  0  0  0  0  0
    2.6400    2.1190   17.0010 H   0  0  0  0  0  0  0  0  0  0  0  0
    1.1530    1.3010   19.2820 H   0  0  0  0  0  0  0  0  0  0  0  0
    1.0700    1.7630   21.7250 H   0  0  0  0  0  0  0  0  0  0  0  0
    2.0310    3.8540   22.6410 H   0  0  0  0  0  0  0  0  0  0  0  0
    3.0890    5.5240   21.1270 H   0  0  0  0  0  0  0  0  0  0  0  0
  1 16  1  0  0  0  0
  2  7  1  0  0  0  0
  2  1  2  0  0  0  0
  3  2  1  0  0  0  0
  4  3  2  0  0  0  0
  4  5  1  0  0  0  0
  5  6  2  0  0  0  0
  6  1  1  0  0  0  0
  6  9  1  0  0  0  0
  8  3  1  0  0  0  0
 10 16  2  0  0  0  0
 10 11  1  0  0  0  0
 11 12  2  0  0  0  0
 12 13  1  0  0  0  0
 12 18  1  0  0  0  0
 13 14  1  0  0  0  0
 15 19  1  0  0  0  0
 15 13  2  0  0  0  0
 16 15  1  0  0  0  0
 17 11  1  0  0  0  0
 20 10  1  0  0  0  0
 21 20  1  0  0  0  0
 22 20  1  0  0  0  0
 23 20  1  0  0  0  0
 24  5  1  0  0  0  0
 24 26  2  0  0  0  0
 25 24  1  0  0  0  0
 27 25  1  0  0  0  0
 28 25  1  0  0  0  0
 29 30  1  0  0  0  0
 29  4  1  0  0  0  0
 31 29  1  0  0  0  0
 32 29  1  0  0  0  0
 32 36  1  0  0  0  0
 32 33  1  0  0  0  0
 33 34  2  0  0  0  0
 35 33  1  0  0  0  0
 35 38  1  0  0  0  0
 37 35  1  0  0  0  0
 38 47  1  1  0  0  0
 38 46  1  0  0  0  0
 39 49  1  0  0  0  0
 39 40  1  0  0  0  0
 39 38  1  0  0  0  0
 40 41  1  0  0  0  0
 41 46  2  0  0  0  0
 41 42  1  0  0  0  0
 42 43  2  0  0  0  0
 43 44  1  0  0  0  0
 43 53  1  0  0  0  0
 44 54  1  0  0  0  0
 45 55  1  0  0  0  0
 45 44  2  0  0  0  0
 46 45  1  0  0  0  0
 48 39  1  0  0  0  0
 50 40  1  0  0  0  0
 51 40  1  0  0  0  0
 52 42  1  0  0  0  0
M  END
>  <MODEL>
16

>  <REMARK>
 VINA RESULT:    -8.451      2.427      3.644
 INTER + INTRA:         -10.792
 INTER:                 -10.187
 INTRA:                  -0.605
 UNBOUND:                 0.377
  Name = 
  6 active torsions:
  status: ('A' for Active; 'I' for Inactive)
    1  A    between atoms: C_1  and  C_2
    2  A    between atoms: C_8  and  C_9
    3  A    between atoms: C_12  and  C_13
    4  A    between atoms: C_13  and  N_14
    5  A    between atoms: N_17  and  C_18
    6  A    between atoms: C_27  and  C_28
                            x       y       z     vdW  Elec       q    Type
                         _______ _______ _______ _____ _____    ______ ____

>  <TORSDO>
F 6

$$$$
=
 OpenBabel07192307433D

 55 58  0  0  1  0  0  0  0  0999 V2000
   -1.8910   12.4180   21.6750 C   0  0  0  0  0  0  0  0  0  0  0  0
   -1.1890   11.2730   22.0710 C   0  0  0  0  0  0  0  0  0  0  0  0
   -0.2010   10.7140   21.2520 C   0  0  0  0  0  0  0  0  0  0  0  0
    0.1220   11.2860   20.0100 C   0  0  0  0  0  0  0  0  0  0  0  0
   -0.6270   12.4000   19.5870 C   0  0  0  0  0  0  0  0  0  0  0  0
   -1.6030   12.9700   20.4190 C   0  0  0  0  0  0  0  0  0  0  0  0
   -1.3990   10.8120   23.0350 H   0  0  0  0  0  0  0  0  0  0  0  0
    0.3240    9.8260   21.6010 H   0  0  0  0  0  0  0  0  0  0  0  0
   -2.1500   13.8470   20.0770 H   0  0  0  0  0  0  0  0  0  0  0  0
   -3.4230   14.3170   22.3460 C   0  0  0  0  0  0  0  0  0  0  0  0
   -4.4240   14.8140   23.2000 C   0  0  0  0  0  0  0  0  0  0  0  0
   -4.9110   14.0410   24.2520 C   0  0  0  0  0  0  0  0  0  0  0  0
   -4.4060   12.7660   24.4490 C   0  0  0  0  0  0  0  0  0  0  0  0
   -4.8730   12.0200   25.4590 F   0  0  0  0  0  0  0  0  0  0  0  0
   -3.4250   12.2470   23.6120 C   0  0  0  0  0  0  0  0  0  0  0  0
   -2.9200   13.0080   22.5430 C   0  0  0  0  0  0  0  0  0  0  0  0
   -4.8270   15.8150   23.0510 H   0  0  0  0  0  0  0  0  0  0  0  0
   -5.6800   14.4240   24.9150 H   0  0  0  0  0  0  0  0  0  0  0  0
   -3.0650   11.2380   23.7960 H   0  0  0  0  0  0  0  0  0  0  0  0
   -2.9330   15.1930   21.2210 C   0  0  0  0  0  0  0  0  0  0  0  0
   -3.5240   15.0390   20.3120 H   0  0  0  0  0  0  0  0  0  0  0  0
   -1.8890   14.9610   20.9880 H   0  0  0  0  0  0  0  0  0  0  0  0
   -3.0240   16.2520   21.4830 H   0  0  0  0  0  0  0  0  0  0  0  0
   -0.4440   13.0370   18.2640 C   0  0  0  0  0  0  0  0  0  0  0  0
   -1.2590   12.5940   17.2630 N   0  0  0  0  0  0  0  0  0  0  0  0
    0.3560   13.9480   18.0990 O   0  0  0  0  0  0  0  0  0  0  0  0
   -1.2320   13.1090   16.3930 H   0  0  0  0  0  0  0  0  0  0  0  0
   -2.0740   12.0220   17.4440 H   0  0  0  0  0  0  0  0  0  0  0  0
    1.2210   10.6890   19.1630 C   0  0  0  0  0  0  0  0  0  0  0  0
    2.1580   11.2460   19.2670 H   0  0  0  0  0  0  0  0  0  0  0  0
    0.9210   10.7090   18.1100 H   0  0  0  0  0  0  0  0  0  0  0  0
    1.5350    9.3280   19.5480 N   0  0  0  0  0  0  0  0  0  0  0  0
    1.9490    8.4430   18.5860 C   0  0  0  0  0  0  0  0  0  0  0  0
    1.9760    8.6900   17.3890 O   0  0  0  0  0  0  0  0  0  0  0  0
    2.3220    7.2500   19.1400 N   0  0  0  0  0  0  0  0  0  0  0  0
    2.0200    9.2240   20.4280 H   0  0  0  0  0  0  0  0  0  0  0  0
    1.9070    7.0220   20.0310 H   0  0  0  0  0  0  0  0  0  0  0  0
    2.7200    6.1410   18.3010 C   0  0  2  0  0  0  0  0  0  0  0  0
    2.5240    4.7690   18.9810 C   0  0  0  0  0  0  0  0  0  0  0  0
    3.8220    4.4620   19.7430 C   0  0  0  0  0  0  0  0  0  0  0  0
    4.8310    5.1940   18.9140 C   0  0  0  0  0  0  0  0  0  0  0  0
    6.2080    5.0510   18.9240 C   0  0  0  0  0  0  0  0  0  0  0  0
    6.9640    5.8730   18.0860 C   0  0  0  0  0  0  0  0  0  0  0  0
    6.3420    6.8280   17.2650 C   0  0  0  0  0  0  0  0  0  0  0  0
    4.9530    6.9730   17.2720 C   0  0  0  0  0  0  0  0  0  0  0  0
    4.2080    6.1460   18.0980 C   0  0  0  0  0  0  0  0  0  0  0  0
    2.1730    6.1790   17.3510 H   0  0  0  0  0  0  0  0  0  0  0  0
    1.6450    4.7200   19.6350 H   0  0  0  0  0  0  0  0  0  0  0  0
    2.3890    4.0050   18.2020 H   0  0  0  0  0  0  0  0  0  0  0  0
    3.7950    4.8770   20.7560 H   0  0  0  0  0  0  0  0  0  0  0  0
    4.0150    3.3860   19.7820 H   0  0  0  0  0  0  0  0  0  0  0  0
    6.6910    4.3200   19.5630 H   0  0  0  0  0  0  0  0  0  0  0  0
    8.0470    5.7770   18.0710 H   0  0  0  0  0  0  0  0  0  0  0  0
    6.9490    7.4610   16.6230 H   0  0  0  0  0  0  0  0  0  0  0  0
    4.4720    7.7180   16.6450 H   0  0  0  0  0  0  0  0  0  0  0  0
  1  2  1  0  0  0  0
  1 16  1  0  0  0  0
  2  7  1  0  0  0  0
  3  8  1  0  0  0  0
  3  2  2  0  0  0  0
  4  3  1  0  0  0  0
  5  4  2  0  0  0  0
  5  6  1  0  0  0  0
  6  1  2  0  0  0  0
  9  6  1  0  0  0  0
 10 16  2  0  0  0  0
 10 11  1  0  0  0  0
 11 12  2  0  0  0  0
 12 13  1  0  0  0  0
 12 18  1  0  0  0  0
 13 14  1  0  0  0  0
 15 19  1  0  0  0  0
 15 13  2  0  0  0  0
 16 15  1  0  0  0  0
 17 11  1  0  0  0  0
 20 23  1  0  0  0  0
 20 10  1  0  0  0  0
 21 20  1  0  0  0  0
 22 20  1  0  0  0  0
 24  5  1  0  0  0  0
 25 28  1  0  0  0  0
 25 24  1  0  0  0  0
 26 24  2  0  0  0  0
 27 25  1  0  0  0  0
 29 30  1  0  0  0  0
 29 32  1  0  0  0  0
 29  4  1  0  0  0  0
 31 29  1  0  0  0  0
 32 36  1  0  0  0  0
 33 35  1  0  0  0  0
 33 32  1  0  0  0  0
 34 33  2  0  0  0  0
 35 37  1  0  0  0  0
 38 47  1  6  0  0  0
 38 39  1  0  0  0  0
 38 35  1  0  0  0  0
 39 48  1  0  0  0  0
 39 40  1  0  0  0  0
 40 51  1  0  0  0  0
 40 50  1  0  0  0  0
 41 42  1  0  0  0  0
 41 40  1  0  0  0  0
 42 52  1  0  0  0  0
 43 42  2  0  0  0  0
 44 45  2  0  0  0  0
 44 43  1  0  0  0  0
 45 46  1  0  0  0  0
 46 38  1  0  0  0  0
 46 41  2  0  0  0  0
 49 39  1  0  0  0  0
 53 43  1  0  0  0  0
 54 44  1  0  0  0  0
 55 45  1  0  0  0  0
M  END
>  <MODEL>
17

>  <REMARK>
 VINA RESULT:    -8.275      1.322      1.340
 INTER + INTRA:         -10.559
 INTER:                 -10.514
 INTRA:                  -0.045
 UNBOUND:                 0.377
  Name = 
  6 active torsions:
  status: ('A' for Active; 'I' for Inactive)
    1  A    between atoms: C_1  and  C_2
    2  A    between atoms: C_8  and  C_9
    3  A    between atoms: C_12  and  C_13
    4  A    between atoms: C_13  and  N_14
    5  A    between atoms: N_17  and  C_18
    6  A    between atoms: C_27  and  C_28
                            x       y       z     vdW  Elec       q    Type
                         _______ _______ _______ _____ _____    ______ ____

>  <TORSDO>
F 6

$$$$
=
 OpenBabel07192307433D

 55 58  0  0  1  0  0  0  0  0999 V2000
    3.7900    5.7310   18.3630 C   0  0  0  0  0  0  0  0  0  0  0  0
    3.3160    7.0480   18.4130 C   0  0  0  0  0  0  0  0  0  0  0  0
    2.3440    7.4300   19.3460 C   0  0  0  0  0  0  0  0  0  0  0  0
    1.8190    6.5060   20.2660 C   0  0  0  0  0  0  0  0  0  0  0  0
    2.2520    5.1710   20.1730 C   0  0  0  0  0  0  0  0  0  0  0  0
    3.2410    4.7960   19.2500 C   0  0  0  0  0  0  0  0  0  0  0  0
    3.7120    7.7960   17.7280 H   0  0  0  0  0  0  0  0  0  0  0  0
    2.0070    8.4650   19.3530 H   0  0  0  0  0  0  0  0  0  0  0  0
    3.5760    3.7600   19.2170 H   0  0  0  0  0  0  0  0  0  0  0  0
    4.7110    4.1670   16.6010 C   0  0  0  0  0  0  0  0  0  0  0  0
    5.7200    3.8590   15.6700 C   0  0  0  0  0  0  0  0  0  0  0  0
    6.8340    4.6840   15.5290 C   0  0  0  0  0  0  0  0  0  0  0  0
    6.9400    5.8230   16.3120 C   0  0  0  0  0  0  0  0  0  0  0  0
    8.0100    6.6180   16.1780 F   0  0  0  0  0  0  0  0  0  0  0  0
    5.9510    6.1550   17.2310 C   0  0  0  0  0  0  0  0  0  0  0  0
    4.8180    5.3380   17.3880 C   0  0  0  0  0  0  0  0  0  0  0  0
    5.6430    2.9670   15.0510 H   0  0  0  0  0  0  0  0  0  0  0  0
    7.6160    4.4460   14.8150 H   0  0  0  0  0  0  0  0  0  0  0  0
    6.0700    7.0620   17.8160 H   0  0  0  0  0  0  0  0  0  0  0  0
    3.5260    3.2420   16.7120 C   0  0  0  0  0  0  0  0  0  0  0  0
    3.5120    2.5140   15.8930 H   0  0  0  0  0  0  0  0  0  0  0  0
    2.5940    3.8150   16.6680 H   0  0  0  0  0  0  0  0  0  0  0  0
    3.5610    2.6700   17.6450 H   0  0  0  0  0  0  0  0  0  0  0  0
    1.7100    4.0880   21.0250 C   0  0  0  0  0  0  0  0  0  0  0  0
    0.6140    3.4340   20.5420 N   0  0  0  0  0  0  0  0  0  0  0  0
    2.2530    3.7670   22.0730 O   0  0  0  0  0  0  0  0  0  0  0  0
    0.3140    2.6120   21.0510 H   0  0  0  0  0  0  0  0  0  0  0  0
    0.3080    3.5280   19.5830 H   0  0  0  0  0  0  0  0  0  0  0  0
    0.8030    6.9520   21.2920 C   0  0  0  0  0  0  0  0  0  0  0  0
    1.2760    7.1920   22.2490 H   0  0  0  0  0  0  0  0  0  0  0  0
    0.0750    6.1500   21.4540 H   0  0  0  0  0  0  0  0  0  0  0  0
    0.1090    8.1590   20.8900 N   0  0  0  0  0  0  0  0  0  0  0  0
    0.3420    9.3200   21.5810 C   0  0  0  0  0  0  0  0  0  0  0  0
    1.0230    9.3960   22.5930 O   0  0  0  0  0  0  0  0  0  0  0  0
   -0.2930   10.3800   20.9940 N   0  0  0  0  0  0  0  0  0  0  0  0
    0.0090    8.2950   19.8950 H   0  0  0  0  0  0  0  0  0  0  0  0
   -1.1050   10.1610   20.4360 H   0  0  0  0  0  0  0  0  0  0  0  0
   -0.2490   11.6920   21.5990 C   0  0  2  0  0  0  0  0  0  0  0  0
   -1.6480   12.3160   21.7890 C   0  0  0  0  0  0  0  0  0  0  0  0
   -1.9690   13.0880   20.5000 C   0  0  0  0  0  0  0  0  0  0  0  0
   -0.5980   13.4730   20.0380 C   0  0  0  0  0  0  0  0  0  0  0  0
   -0.2530   14.4270   19.0970 C   0  0  0  0  0  0  0  0  0  0  0  0
    1.0990   14.5940   18.7900 C   0  0  0  0  0  0  0  0  0  0  0  0
    2.0790   13.8040   19.4130 C   0  0  0  0  0  0  0  0  0  0  0  0
    1.7200   12.8350   20.3510 C   0  0  0  0  0  0  0  0  0  0  0  0
    0.3770   12.6820   20.6580 C   0  0  0  0  0  0  0  0  0  0  0  0
    0.2810   11.6410   22.5570 H   0  0  0  0  0  0  0  0  0  0  0  0
   -2.4290   11.5870   22.0330 H   0  0  0  0  0  0  0  0  0  0  0  0
   -1.6050   13.0330   22.6220 H   0  0  0  0  0  0  0  0  0  0  0  0
   -2.4480   12.4400   19.7580 H   0  0  0  0  0  0  0  0  0  0  0  0
   -2.6010   13.9570   20.7040 H   0  0  0  0  0  0  0  0  0  0  0  0
   -1.0080   15.0340   18.6100 H   0  0  0  0  0  0  0  0  0  0  0  0
    1.3980   15.3420   18.0590 H   0  0  0  0  0  0  0  0  0  0  0  0
    3.1260   13.9470   19.1570 H   0  0  0  0  0  0  0  0  0  0  0  0
    2.4760   12.2160   20.8250 H   0  0  0  0  0  0  0  0  0  0  0  0
  1  2  2  0  0  0  0
  1  6  1  0  0  0  0
  2  3  1  0  0  0  0
  3  8  1  0  0  0  0
  3  4  2  0  0  0  0
  4 29  1  0  0  0  0
  5  4  1  0  0  0  0
  5 24  1  0  0  0  0
  6  5  2  0  0  0  0
  7  2  1  0  0  0  0
  9  6  1  0  0  0  0
 10 20  1  0  0  0  0
 10 16  1  0  0  0  0
 11 10  2  0  0  0  0
 12 11  1  0  0  0  0
 12 13  2  0  0  0  0
 13 15  1  0  0  0  0
 14 13  1  0  0  0  0
 15 16  2  0  0  0  0
 15 19  1  0  0  0  0
 16  1  1  0  0  0  0
 17 11  1  0  0  0  0
 18 12  1  0  0  0  0
 20 23  1  0  0  0  0
 21 20  1  0  0  0  0
 22 20  1  0  0  0  0
 24 26  2  0  0  0  0
 25 24  1  0  0  0  0
 25 27  1  0  0  0  0
 28 25  1  0  0  0  0
 29 31  1  0  0  0  0
 29 30  1  0  0  0  0
 32 29  1  0  0  0  0
 32 33  1  0  0  0  0
 33 34  2  0  0  0  0
 35 33  1  0  0  0  0
 35 38  1  0  0  0  0
 36 32  1  0  0  0  0
 37 35  1  0  0  0  0
 38 39  1  0  0  0  0
 38 47  1  1  0  0  0
 39 48  1  0  0  0  0
 39 49  1  0  0  0  0
 40 51  1  0  0  0  0
 40 39  1  0  0  0  0
 41 40  1  0  0  0  0
 41 46  1  0  0  0  0
 42 41  2  0  0  0  0
 43 42  1  0  0  0  0
 43 44  2  0  0  0  0
 44 45  1  0  0  0  0
 45 46  2  0  0  0  0
 45 55  1  0  0  0  0
 46 38  1  0  0  0  0
 50 40  1  0  0  0  0
 52 42  1  0  0  0  0
 53 43  1  0  0  0  0
 54 44  1  0  0  0  0
M  END
>  <MODEL>
18

>  <REMARK>
 VINA RESULT:    -8.238      4.075     10.119
 INTER + INTRA:         -10.510
 INTER:                  -9.912
 INTRA:                  -0.598
 UNBOUND:                 0.377
  Name = 
  6 active torsions:
  status: ('A' for Active; 'I' for Inactive)
    1  A    between atoms: C_1  and  C_2
    2  A    between atoms: C_8  and  C_9
    3  A    between atoms: C_12  and  C_13
    4  A    between atoms: C_13  and  N_14
    5  A    between atoms: N_17  and  C_18
    6  A    between atoms: C_27  and  C_28
                            x       y       z     vdW  Elec       q    Type
                         _______ _______ _______ _____ _____    ______ ____

>  <TORSDO>
F 6

$$$$
=
 OpenBabel07192307433D

 55 58  0  0  1  0  0  0  0  0999 V2000
   -1.1830   12.0790   21.9810 C   0  0  0  0  0  0  0  0  0  0  0  0
   -0.9550   12.6940   20.7430 C   0  0  0  0  0  0  0  0  0  0  0  0
   -0.1890   12.0640   19.7560 C   0  0  0  0  0  0  0  0  0  0  0  0
    0.3680   10.7910   19.9700 C   0  0  0  0  0  0  0  0  0  0  0  0
    0.1890   10.2030   21.2360 C   0  0  0  0  0  0  0  0  0  0  0  0
   -0.5960   10.8290   22.2170 C   0  0  0  0  0  0  0  0  0  0  0  0
   -1.3860   13.6720   20.5340 H   0  0  0  0  0  0  0  0  0  0  0  0
   -0.0410   12.5750   18.8060 H   0  0  0  0  0  0  0  0  0  0  0  0
   -0.7390   10.3380   23.1800 H   0  0  0  0  0  0  0  0  0  0  0  0
   -1.6790   14.0220   23.5250 C   0  0  0  0  0  0  0  0  0  0  0  0
   -2.5120   14.6090   24.4950 C   0  0  0  0  0  0  0  0  0  0  0  0
   -3.6350   13.9350   24.9700 C   0  0  0  0  0  0  0  0  0  0  0  0
   -3.9340   12.6760   24.4750 C   0  0  0  0  0  0  0  0  0  0  0  0
   -5.0130   12.0260   24.9310 F   0  0  0  0  0  0  0  0  0  0  0  0
   -3.1330   12.0790   23.5080 C   0  0  0  0  0  0  0  0  0  0  0  0
   -1.9960   12.7410   23.0110 C   0  0  0  0  0  0  0  0  0  0  0  0
   -2.2850   15.5980   24.8880 H   0  0  0  0  0  0  0  0  0  0  0  0
   -4.2770   14.3840   25.7220 H   0  0  0  0  0  0  0  0  0  0  0  0
   -3.4100   11.0950   23.1390 H   0  0  0  0  0  0  0  0  0  0  0  0
   -0.4790   14.7940   23.0410 C   0  0  0  0  0  0  0  0  0  0  0  0
    0.4260   14.1760   23.0610 H   0  0  0  0  0  0  0  0  0  0  0  0
   -0.3050   15.6640   23.6830 H   0  0  0  0  0  0  0  0  0  0  0  0
   -0.6160   15.1230   22.0060 H   0  0  0  0  0  0  0  0  0  0  0  0
    0.7990    8.9090   21.6150 C   0  0  0  0  0  0  0  0  0  0  0  0
    1.9990    8.9760   22.2630 N   0  0  0  0  0  0  0  0  0  0  0  0
    0.2280    7.8480   21.4070 O   0  0  0  0  0  0  0  0  0  0  0  0
    2.3610    8.1090   22.6400 H   0  0  0  0  0  0  0  0  0  0  0  0
    2.3570    9.8400   22.6490 H   0  0  0  0  0  0  0  0  0  0  0  0
    1.1550   10.1130   18.8730 C   0  0  0  0  0  0  0  0  0  0  0  0
    2.0550   10.6790   18.6140 H   0  0  0  0  0  0  0  0  0  0  0  0
    0.5290   10.0250   17.9780 H   0  0  0  0  0  0  0  0  0  0  0  0
    1.6230    8.7980   19.2640 N   0  0  0  0  0  0  0  0  0  0  0  0
    2.2500    8.0120   18.3320 C   0  0  0  0  0  0  0  0  0  0  0  0
    2.3550    8.2970   17.1480 O   0  0  0  0  0  0  0  0  0  0  0  0
    2.7360    6.8670   18.9000 N   0  0  0  0  0  0  0  0  0  0  0  0
    2.0320    8.7370   20.1850 H   0  0  0  0  0  0  0  0  0  0  0  0
    2.2760    6.5550   19.7410 H   0  0  0  0  0  0  0  0  0  0  0  0
    3.3680    5.8520   18.0850 C   0  0  2  0  0  0  0  0  0  0  0  0
    3.3150    4.4480   18.7230 C   0  0  0  0  0  0  0  0  0  0  0  0
    4.5710    4.3100   19.5980 C   0  0  0  0  0  0  0  0  0  0  0  0
    5.5310    5.2050   18.8800 C   0  0  0  0  0  0  0  0  0  0  0  0
    6.9070    5.2640   19.0170 C   0  0  0  0  0  0  0  0  0  0  0  0
    7.6070    6.2110   18.2660 C   0  0  0  0  0  0  0  0  0  0  0  0
    6.9280    7.0880   17.4050 C   0  0  0  0  0  0  0  0  0  0  0  0
    5.5380    7.0300   17.2830 C   0  0  0  0  0  0  0  0  0  0  0  0
    4.8510    6.0800   18.0230 C   0  0  0  0  0  0  0  0  0  0  0  0
    2.9100    5.8380   17.0890 H   0  0  0  0  0  0  0  0  0  0  0  0
    2.3980    4.2520   19.2900 H   0  0  0  0  0  0  0  0  0  0  0  0
    3.3660    3.6950   17.9230 H   0  0  0  0  0  0  0  0  0  0  0  0
    4.3900    4.6870   20.6110 H   0  0  0  0  0  0  0  0  0  0  0  0
    4.9150    3.2730   19.6390 H   0  0  0  0  0  0  0  0  0  0  0  0
    7.4340    4.5920   19.6870 H   0  0  0  0  0  0  0  0  0  0  0  0
    8.6890    6.2740   18.3510 H   0  0  0  0  0  0  0  0  0  0  0  0
    7.4910    7.8210   16.8320 H   0  0  0  0  0  0  0  0  0  0  0  0
    5.0110    7.7150   16.6260 H   0  0  0  0  0  0  0  0  0  0  0  0
  1  6  1  0  0  0  0
  1 16  1  0  0  0  0
  2  1  2  0  0  0  0
  3  4  2  0  0  0  0
  3  2  1  0  0  0  0
  4  5  1  0  0  0  0
  5 24  1  0  0  0  0
  5  6  2  0  0  0  0
  6  9  1  0  0  0  0
  7  2  1  0  0  0  0
  8  3  1  0  0  0  0
 10 11  1  0  0  0  0
 11 17  1  0  0  0  0
 11 12  2  0  0  0  0
 12 18  1  0  0  0  0
 13 14  1  0  0  0  0
 13 12  1  0  0  0  0
 15 13  2  0  0  0  0
 16 15  1  0  0  0  0
 16 10  2  0  0  0  0
 19 15  1  0  0  0  0
 20 21  1  0  0  0  0
 20 10  1  0  0  0  0
 20 22  1  0  0  0  0
 23 20  1  0  0  0  0
 24 25  1  0  0  0  0
 25 27  1  0  0  0  0
 25 28  1  0  0  0  0
 26 24  2  0  0  0  0
 29 32  1  0  0  0  0
 29  4  1  0  0  0  0
 30 29  1  0  0  0  0
 31 29  1  0  0  0  0
 32 36  1  0  0  0  0
 33 35  1  0  0  0  0
 33 32  1  0  0  0  0
 34 33  2  0  0  0  0
 35 37  1  0  0  0  0
 38 47  1  6  0  0  0
 38 39  1  0  0  0  0
 38 35  1  0  0  0  0
 39 48  1  0  0  0  0
 39 40  1  0  0  0  0
 40 51  1  0  0  0  0
 40 50  1  0  0  0  0
 41 42  1  0  0  0  0
 41 40  1  0  0  0  0
 42 52  1  0  0  0  0
 43 53  1  0  0  0  0
 43 42  2  0  0  0  0
 44 43  1  0  0  0  0
 45 44  2  0  0  0  0
 45 46  1  0  0  0  0
 46 38  1  0  0  0  0
 46 41  2  0  0  0  0
 49 39  1  0  0  0  0
 54 44  1  0  0  0  0
 55 45  1  0  0  0  0
M  END
>  <MODEL>
19

>  <REMARK>
 VINA RESULT:    -8.213      1.384      1.966
 INTER + INTRA:         -10.477
 INTER:                 -10.967
 INTRA:                   0.490
 UNBOUND:                 0.377
  Name = 
  6 active torsions:
  status: ('A' for Active; 'I' for Inactive)
    1  A    between atoms: C_1  and  C_2
    2  A    between atoms: C_8  and  C_9
    3  A    between atoms: C_12  and  C_13
    4  A    between atoms: C_13  and  N_14
    5  A    between atoms: N_17  and  C_18
    6  A    between atoms: C_27  and  C_28
                            x       y       z     vdW  Elec       q    Type
                         _______ _______ _______ _____ _____    ______ ____

>  <TORSDO>
F 6

$$$$
=
 OpenBabel07192307433D

 55 58  0  0  1  0  0  0  0  0999 V2000
    4.3690    5.1140   17.4140 C   0  0  0  0  0  0  0  0  0  0  0  0
    3.8400    6.3730   17.7220 C   0  0  0  0  0  0  0  0  0  0  0  0
    2.9430    6.5380   18.7840 C   0  0  0  0  0  0  0  0  0  0  0  0
    2.5510    5.4480   19.5800 C   0  0  0  0  0  0  0  0  0  0  0  0
    3.0370    4.1740   19.2310 C   0  0  0  0  0  0  0  0  0  0  0  0
    3.9510    4.0150   18.1780 C   0  0  0  0  0  0  0  0  0  0  0  0
    4.1340    7.2450   17.1390 H   0  0  0  0  0  0  0  0  0  0  0  0
    2.5590    7.5360   18.9920 H   0  0  0  0  0  0  0  0  0  0  0  0
    4.3300    3.0210   17.9450 H   0  0  0  0  0  0  0  0  0  0  0  0
    6.6770    5.3340   16.4020 C   0  0  0  0  0  0  0  0  0  0  0  0
    7.5400    5.1280   15.3090 C   0  0  0  0  0  0  0  0  0  0  0  0
    7.0670    4.5650   14.1260 C   0  0  0  0  0  0  0  0  0  0  0  0
    5.7330    4.2010   14.0310 C   0  0  0  0  0  0  0  0  0  0  0  0
    5.2760    3.6600   12.8940 F   0  0  0  0  0  0  0  0  0  0  0  0
    4.8630    4.3840   15.1000 C   0  0  0  0  0  0  0  0  0  0  0  0
    5.3190    4.9480   16.3050 C   0  0  0  0  0  0  0  0  0  0  0  0
    8.5890    5.4110   15.3770 H   0  0  0  0  0  0  0  0  0  0  0  0
    7.7300    4.4090   13.2800 H   0  0  0  0  0  0  0  0  0  0  0  0
    3.8280    4.0740   14.9860 H   0  0  0  0  0  0  0  0  0  0  0  0
    7.2400    5.9440   17.6600 C   0  0  0  0  0  0  0  0  0  0  0  0
    8.1200    5.3920   18.0090 H   0  0  0  0  0  0  0  0  0  0  0  0
    6.4910    5.9220   18.4590 H   0  0  0  0  0  0  0  0  0  0  0  0
    7.5610    6.9760   17.4860 H   0  0  0  0  0  0  0  0  0  0  0  0
    2.6290    2.9370   19.9340 C   0  0  0  0  0  0  0  0  0  0  0  0
    1.7330    2.1410   19.2810 N   0  0  0  0  0  0  0  0  0  0  0  0
    3.1150    2.6260   21.0130 O   0  0  0  0  0  0  0  0  0  0  0  0
    1.5480    1.2340   19.6920 H   0  0  0  0  0  0  0  0  0  0  0  0
    1.5140    2.2650   18.3020 H   0  0  0  0  0  0  0  0  0  0  0  0
    1.6160    5.6580   20.7470 C   0  0  0  0  0  0  0  0  0  0  0  0
    2.1650    5.8020   21.6830 H   0  0  0  0  0  0  0  0  0  0  0  0
    0.9670    4.7820   20.8560 H   0  0  0  0  0  0  0  0  0  0  0  0
    0.8000    6.8460   20.5920 N   0  0  0  0  0  0  0  0  0  0  0  0
    1.1930    8.0070   21.2060 C   0  0  0  0  0  0  0  0  0  0  0  0
    2.1400    8.0950   21.9740 O   0  0  0  0  0  0  0  0  0  0  0  0
    0.3830    9.0510   20.8530 N   0  0  0  0  0  0  0  0  0  0  0  0
    0.4070    6.9890   19.6730 H   0  0  0  0  0  0  0  0  0  0  0  0
   -0.5500    8.8120   20.5550 H   0  0  0  0  0  0  0  0  0  0  0  0
    0.5660   10.3580   21.4440 C   0  0  2  0  0  0  0  0  0  0  0  0
    0.1470   10.4110   22.9290 C   0  0  0  0  0  0  0  0  0  0  0  0
   -1.3450   10.7760   22.9570 C   0  0  0  0  0  0  0  0  0  0  0  0
   -1.4760   11.5800   21.7020 C   0  0  0  0  0  0  0  0  0  0  0  0
   -2.5090   12.4250   21.3350 C   0  0  0  0  0  0  0  0  0  0  0  0
   -2.4400   13.0510   20.0880 C   0  0  0  0  0  0  0  0  0  0  0  0
   -1.3560   12.8170   19.2260 C   0  0  0  0  0  0  0  0  0  0  0  0
   -0.3250   11.9530   19.6000 C   0  0  0  0  0  0  0  0  0  0  0  0
   -0.3950   11.3440   20.8430 C   0  0  0  0  0  0  0  0  0  0  0  0
    1.6090   10.6750   21.3290 H   0  0  0  0  0  0  0  0  0  0  0  0
    0.3530    9.4870   23.4810 H   0  0  0  0  0  0  0  0  0  0  0  0
    0.7100   11.2150   23.4260 H   0  0  0  0  0  0  0  0  0  0  0  0
   -1.9730    9.8800   22.8970 H   0  0  0  0  0  0  0  0  0  0  0  0
   -1.5970   11.3520   23.8510 H   0  0  0  0  0  0  0  0  0  0  0  0
   -3.3510   12.6020   21.9950 H   0  0  0  0  0  0  0  0  0  0  0  0
   -3.2360   13.7240   19.7780 H   0  0  0  0  0  0  0  0  0  0  0  0
   -1.3230   13.3110   18.2580 H   0  0  0  0  0  0  0  0  0  0  0  0
    0.5080   11.7630   18.9300 H   0  0  0  0  0  0  0  0  0  0  0  0
  1  2  2  0  0  0  0
  1  6  1  0  0  0  0
  2  3  1  0  0  0  0
  3  8  1  0  0  0  0
  3  4  2  0  0  0  0
  4 29  1  0  0  0  0
  5  4  1  0  0  0  0
  5 24  1  0  0  0  0
  6  5  2  0  0  0  0
  7  2  1  0  0  0  0
  9  6  1  0  0  0  0
 10 20  1  0  0  0  0
 11 17  1  0  0  0  0
 11 10  2  0  0  0  0
 12 11  1  0  0  0  0
 13 12  2  0  0  0  0
 13 15  1  0  0  0  0
 14 13  1  0  0  0  0
 15 16  2  0  0  0  0
 16 10  1  0  0  0  0
 16  1  1  0  0  0  0
 18 12  1  0  0  0  0
 19 15  1  0  0  0  0
 20 21  1  0  0  0  0
 20 22  1  0  0  0  0
 23 20  1  0  0  0  0
 24 26  2  0  0  0  0
 25 27  1  0  0  0  0
 25 24  1  0  0  0  0
 28 25  1  0  0  0  0
 29 31  1  0  0  0  0
 29 30  1  0  0  0  0
 32 29  1  0  0  0  0
 32 33  1  0  0  0  0
 33 34  2  0  0  0  0
 35 33  1  0  0  0  0
 35 38  1  0  0  0  0
 36 32  1  0  0  0  0
 37 35  1  0  0  0  0
 38 47  1  6  0  0  0
 38 39  1  0  0  0  0
 39 40  1  0  0  0  0
 39 49  1  0  0  0  0
 39 48  1  0  0  0  0
 40 51  1  0  0  0  0
 41 40  1  0  0  0  0
 42 41  1  0  0  0  0
 42 52  1  0  0  0  0
 43 42  2  0  0  0  0
 44 45  2  0  0  0  0
 44 43  1  0  0  0  0
 45 46  1  0  0  0  0
 46 38  1  0  0  0  0
 46 41  2  0  0  0  0
 50 40  1  0  0  0  0
 53 43  1  0  0  0  0
 54 44  1  0  0  0  0
 55 45  1  0  0  0  0
M  END
>  <MODEL>
20

>  <REMARK>
 VINA RESULT:    -8.200      4.142     10.617
 INTER + INTRA:         -10.460
 INTER:                  -9.738
 INTRA:                  -0.722
 UNBOUND:                 0.377
  Name = 
  6 active torsions:
  status: ('A' for Active; 'I' for Inactive)
    1  A    between atoms: C_1  and  C_2
    2  A    between atoms: C_8  and  C_9
    3  A    between atoms: C_12  and  C_13
    4  A    between atoms: C_13  and  N_14
    5  A    between atoms: N_17  and  C_18
    6  A    between atoms: C_27  and  C_28
                            x       y       z     vdW  Elec       q    Type
                         _______ _______ _______ _____ _____    ______ ____

>  <TORSDO>
F 6

$$$$
=
 OpenBabel07192307433D

 55 58  0  0  1  0  0  0  0  0999 V2000
    4.3200    3.8800   16.9320 C   0  0  0  0  0  0  0  0  0  0  0  0
    2.9820    4.2440   16.7380 C   0  0  0  0  0  0  0  0  0  0  0  0
    2.0160    3.9910   17.7190 C   0  0  0  0  0  0  0  0  0  0  0  0
    2.3590    3.3710   18.9330 C   0  0  0  0  0  0  0  0  0  0  0  0
    3.6920    2.9520   19.1000 C   0  0  0  0  0  0  0  0  0  0  0  0
    4.6620    3.2250   18.1230 C   0  0  0  0  0  0  0  0  0  0  0  0
    2.6820    4.7420   15.8170 H   0  0  0  0  0  0  0  0  0  0  0  0
    0.9880    4.2940   17.5290 H   0  0  0  0  0  0  0  0  0  0  0  0
    5.6920    2.9110   18.2900 H   0  0  0  0  0  0  0  0  0  0  0  0
    6.4950    4.9230   16.1660 C   0  0  0  0  0  0  0  0  0  0  0  0
    7.4360    5.1330   15.1420 C   0  0  0  0  0  0  0  0  0  0  0  0
    7.2280    4.6140   13.8660 C   0  0  0  0  0  0  0  0  0  0  0  0
    6.0820    3.8780   13.6100 C   0  0  0  0  0  0  0  0  0  0  0  0
    5.8790    3.3770   12.3840 F   0  0  0  0  0  0  0  0  0  0  0  0
    5.1420    3.6450   14.6080 C   0  0  0  0  0  0  0  0  0  0  0  0
    5.3330    4.1580   15.9030 C   0  0  0  0  0  0  0  0  0  0  0  0
    8.3390    5.7100   15.3350 H   0  0  0  0  0  0  0  0  0  0  0  0
    7.9510    4.7790   13.0730 H   0  0  0  0  0  0  0  0  0  0  0  0
    4.2640    3.0540   14.3660 H   0  0  0  0  0  0  0  0  0  0  0  0
    6.7700    5.5030   17.5290 C   0  0  0  0  0  0  0  0  0  0  0  0
    7.1210    6.5390   17.4570 H   0  0  0  0  0  0  0  0  0  0  0  0
    7.5440    4.9210   18.0400 H   0  0  0  0  0  0  0  0  0  0  0  0
    5.8600    5.5190   18.1390 H   0  0  0  0  0  0  0  0  0  0  0  0
    4.1580    2.2110   20.2940 C   0  0  0  0  0  0  0  0  0  0  0  0
    5.2770    1.4460   20.1290 N   0  0  0  0  0  0  0  0  0  0  0  0
    3.6010    2.3280   21.3760 O   0  0  0  0  0  0  0  0  0  0  0  0
    5.6770    1.0400   20.9650 H   0  0  0  0  0  0  0  0  0  0  0  0
    5.8740    1.5310   19.3170 H   0  0  0  0  0  0  0  0  0  0  0  0
    1.3080    3.1480   19.9940 C   0  0  0  0  0  0  0  0  0  0  0  0
    1.7350    2.6980   20.8960 H   0  0  0  0  0  0  0  0  0  0  0  0
    0.5340    2.4780   19.6040 H   0  0  0  0  0  0  0  0  0  0  0  0
    0.6960    4.3870   20.4320 N   0  0  0  0  0  0  0  0  0  0  0  0
    1.4880    5.4910   20.6130 C   0  0  0  0  0  0  0  0  0  0  0  0
    2.7080    5.4860   20.5310 O   0  0  0  0  0  0  0  0  0  0  0  0
    0.7360    6.5960   20.9020 N   0  0  0  0  0  0  0  0  0  0  0  0
   -0.2030    4.5970   20.0260 H   0  0  0  0  0  0  0  0  0  0  0  0
   -0.1660    6.4260   21.3190 H   0  0  0  0  0  0  0  0  0  0  0  0
    1.3710    7.8590   21.2080 C   0  0  2  0  0  0  0  0  0  0  0  0
    0.6010    8.6790   22.2660 C   0  0  0  0  0  0  0  0  0  0  0  0
   -0.4120    9.5470   21.5030 C   0  0  0  0  0  0  0  0  0  0  0  0
    0.2880    9.7380   20.1940 C   0  0  0  0  0  0  0  0  0  0  0  0
    0.0120   10.6690   19.2080 C   0  0  0  0  0  0  0  0  0  0  0  0
    0.7770   10.6410   18.0400 C   0  0  0  0  0  0  0  0  0  0  0  0
    1.7910    9.6850   17.8690 C   0  0  0  0  0  0  0  0  0  0  0  0
    2.0530    8.7420   18.8640 C   0  0  0  0  0  0  0  0  0  0  0  0
    1.2970    8.7820   20.0250 C   0  0  0  0  0  0  0  0  0  0  0  0
    2.4030    7.6870   21.5340 H   0  0  0  0  0  0  0  0  0  0  0  0
    0.1180    8.0680   23.0360 H   0  0  0  0  0  0  0  0  0  0  0  0
    1.3100    9.3450   22.7800 H   0  0  0  0  0  0  0  0  0  0  0  0
   -1.3560    9.0120   21.3510 H   0  0  0  0  0  0  0  0  0  0  0  0
   -0.5960   10.4920   22.0210 H   0  0  0  0  0  0  0  0  0  0  0  0
   -0.7760   11.4040   19.3340 H   0  0  0  0  0  0  0  0  0  0  0  0
    0.5840   11.3650   17.2520 H   0  0  0  0  0  0  0  0  0  0  0  0
    2.3720    9.6770   16.9500 H   0  0  0  0  0  0  0  0  0  0  0  0
    2.8300    7.9950   18.7280 H   0  0  0  0  0  0  0  0  0  0  0  0
  1  6  1  0  0  0  0
  2  1  2  0  0  0  0
  2  3  1  0  0  0  0
  3  4  2  0  0  0  0
  4  5  1  0  0  0  0
  4 29  1  0  0  0  0
  5 24  1  0  0  0  0
  6  9  1  0  0  0  0
  6  5  2  0  0  0  0
  7  2  1  0  0  0  0
  8  3  1  0  0  0  0
 10 20  1  0  0  0  0
 11 17  1  0  0  0  0
 11 10  2  0  0  0  0
 12 11  1  0  0  0  0
 13 12  2  0  0  0  0
 13 15  1  0  0  0  0
 14 13  1  0  0  0  0
 15 16  2  0  0  0  0
 16 10  1  0  0  0  0
 16  1  1  0  0  0  0
 18 12  1  0  0  0  0
 19 15  1  0  0  0  0
 20 22  1  0  0  0  0
 20 23  1  0  0  0  0
 21 20  1  0  0  0  0
 24 26  2  0  0  0  0
 25 24  1  0  0  0  0
 25 27  1  0  0  0  0
 28 25  1  0  0  0  0
 29 32  1  0  0  0  0
 29 30  1  0  0  0  0
 31 29  1  0  0  0  0
 32 33  1  0  0  0  0
 33 35  1  0  0  0  0
 34 33  2  0  0  0  0
 35 38  1  0  0  0  0
 35 37  1  0  0  0  0
 36 32  1  0  0  0  0
 38 47  1  1  0  0  0
 38 39  1  0  0  0  0
 39 49  1  0  0  0  0
 39 48  1  0  0  0  0
 40 51  1  0  0  0  0
 40 39  1  0  0  0  0
 41 40  1  0  0  0  0
 42 52  1  0  0  0  0
 42 41  2  0  0  0  0
 43 42  1  0  0  0  0
 44 43  2  0  0  0  0
 44 45  1  0  0  0  0
 45 46  2  0  0  0  0
 46 41  1  0  0  0  0
 46 38  1  0  0  0  0
 50 40  1  0  0  0  0
 53 43  1  0  0  0  0
 54 44  1  0  0  0  0
 55 45  1  0  0  0  0
M  END
>  <MODEL>
21

>  <REMARK>
 VINA RESULT:    -8.196      4.905     10.551
 INTER + INTRA:         -10.455
 INTER:                 -10.992
 INTRA:                   0.537
 UNBOUND:                 0.377
  Name = 
  6 active torsions:
  status: ('A' for Active; 'I' for Inactive)
    1  A    between atoms: C_1  and  C_2
    2  A    between atoms: C_8  and  C_9
    3  A    between atoms: C_12  and  C_13
    4  A    between atoms: C_13  and  N_14
    5  A    between atoms: N_17  and  C_18
    6  A    between atoms: C_27  and  C_28
                            x       y       z     vdW  Elec       q    Type
                         _______ _______ _______ _____ _____    ______ ____

>  <TORSDO>
F 6

$$$$
=
 OpenBabel07192307433D

 55 58  0  0  1  0  0  0  0  0999 V2000
    2.5890    6.8310   19.1240 C   0  0  0  0  0  0  0  0  0  0  0  0
    2.4840    7.4790   17.8870 C   0  0  0  0  0  0  0  0  0  0  0  0
    1.7970    8.6920   17.7640 C   0  0  0  0  0  0  0  0  0  0  0  0
    1.1970    9.3030   18.8790 C   0  0  0  0  0  0  0  0  0  0  0  0
    1.2520    8.6190   20.1080 C   0  0  0  0  0  0  0  0  0  0  0  0
    1.9580    7.4130   20.2320 C   0  0  0  0  0  0  0  0  0  0  0  0
    2.9510    7.0450   17.0040 H   0  0  0  0  0  0  0  0  0  0  0  0
    1.7430    9.1640   16.7850 H   0  0  0  0  0  0  0  0  0  0  0  0
    2.0060    6.9180   21.2010 H   0  0  0  0  0  0  0  0  0  0  0  0
    2.7280    4.3910   19.7800 C   0  0  0  0  0  0  0  0  0  0  0  0
    3.4780    3.2020   19.8520 C   0  0  0  0  0  0  0  0  0  0  0  0
    4.8040    3.1700   19.4260 C   0  0  0  0  0  0  0  0  0  0  0  0
    5.3840    4.3230   18.9200 C   0  0  0  0  0  0  0  0  0  0  0  0
    6.6590    4.2950   18.5100 F   0  0  0  0  0  0  0  0  0  0  0  0
    4.6610    5.5070   18.8280 C   0  0  0  0  0  0  0  0  0  0  0  0
    3.3210    5.5620   19.2490 C   0  0  0  0  0  0  0  0  0  0  0  0
    3.0290    2.2920   20.2470 H   0  0  0  0  0  0  0  0  0  0  0  0
    5.3850    2.2560   19.4850 H   0  0  0  0  0  0  0  0  0  0  0  0
    5.1520    6.3840   18.4150 H   0  0  0  0  0  0  0  0  0  0  0  0
    1.2960    4.3710   20.2510 C   0  0  0  0  0  0  0  0  0  0  0  0
    0.6370    3.9260   19.4970 H   0  0  0  0  0  0  0  0  0  0  0  0
    0.9470    5.3900   20.4440 H   0  0  0  0  0  0  0  0  0  0  0  0
    1.1920    3.7680   21.1590 H   0  0  0  0  0  0  0  0  0  0  0  0
    0.5840    9.1130   21.3340 C   0  0  0  0  0  0  0  0  0  0  0  0
   -0.6980    8.6890   21.5340 N   0  0  0  0  0  0  0  0  0  0  0  0
    1.1730    9.8160   22.1430 O   0  0  0  0  0  0  0  0  0  0  0  0
   -1.1160    8.9140   22.4280 H   0  0  0  0  0  0  0  0  0  0  0  0
   -1.1030    7.9280   21.0050 H   0  0  0  0  0  0  0  0  0  0  0  0
    0.4970   10.6330   18.7300 C   0  0  0  0  0  0  0  0  0  0  0  0
   -0.5340   10.5100   18.3860 H   0  0  0  0  0  0  0  0  0  0  0  0
    1.0370   11.2480   18.0020 H   0  0  0  0  0  0  0  0  0  0  0  0
    0.4020   11.3480   19.9870 N   0  0  0  0  0  0  0  0  0  0  0  0
   -0.4480   12.4200   20.0790 C   0  0  0  0  0  0  0  0  0  0  0  0
   -1.0670   12.8920   19.1360 O   0  0  0  0  0  0  0  0  0  0  0  0
   -0.5090   12.8940   21.3600 N   0  0  0  0  0  0  0  0  0  0  0  0
    0.4200   10.7750   20.8180 H   0  0  0  0  0  0  0  0  0  0  0  0
    0.2930   12.7080   21.9440 H   0  0  0  0  0  0  0  0  0  0  0  0
   -1.2860   14.0730   21.6730 C   0  0  2  0  0  0  0  0  0  0  0  0
   -0.6990   14.8880   22.8450 C   0  0  0  0  0  0  0  0  0  0  0  0
   -1.3180   14.3240   24.1330 C   0  0  0  0  0  0  0  0  0  0  0  0
   -2.6380   13.8280   23.6330 C   0  0  0  0  0  0  0  0  0  0  0  0
   -3.7560   13.4860   24.3740 C   0  0  0  0  0  0  0  0  0  0  0  0
   -4.8780   13.0050   23.6950 C   0  0  0  0  0  0  0  0  0  0  0  0
   -4.8640   12.8620   22.2980 C   0  0  0  0  0  0  0  0  0  0  0  0
   -3.7270   13.1970   21.5610 C   0  0  0  0  0  0  0  0  0  0  0  0
   -2.6210   13.6830   22.2400 C   0  0  0  0  0  0  0  0  0  0  0  0
   -1.3840   14.7010   20.7800 H   0  0  0  0  0  0  0  0  0  0  0  0
    0.3960   14.8860   22.8830 H   0  0  0  0  0  0  0  0  0  0  0  0
   -1.0150   15.9370   22.7390 H   0  0  0  0  0  0  0  0  0  0  0  0
   -0.7260   13.4900   24.5250 H   0  0  0  0  0  0  0  0  0  0  0  0
   -1.4240   15.1000   24.8960 H   0  0  0  0  0  0  0  0  0  0  0  0
   -3.7670   13.5890   25.4540 H   0  0  0  0  0  0  0  0  0  0  0  0
   -5.7710   12.7350   24.2530 H   0  0  0  0  0  0  0  0  0  0  0  0
   -5.7460   12.4820   21.7890 H   0  0  0  0  0  0  0  0  0  0  0  0
   -3.7120   13.0760   20.4820 H   0  0  0  0  0  0  0  0  0  0  0  0
  1 16  1  0  0  0  0
  1  6  1  0  0  0  0
  2  1  2  0  0  0  0
  3  2  1  0  0  0  0
  3  4  2  0  0  0  0
  4  5  1  0  0  0  0
  5  6  2  0  0  0  0
  5 24  1  0  0  0  0
  6  9  1  0  0  0  0
  7  2  1  0  0  0  0
  8  3  1  0  0  0  0
 10 11  1  0  0  0  0
 10 20  1  0  0  0  0
 11 17  1  0  0  0  0
 12 18  1  0  0  0  0
 12 11  2  0  0  0  0
 13 12  1  0  0  0  0
 14 13  1  0  0  0  0
 15 13  2  0  0  0  0
 15 16  1  0  0  0  0
 16 10  2  0  0  0  0
 19 15  1  0  0  0  0
 20 22  1  0  0  0  0
 20 23  1  0  0  0  0
 21 20  1  0  0  0  0
 24 25  1  0  0  0  0
 24 26  2  0  0  0  0
 25 27  1  0  0  0  0
 28 25  1  0  0  0  0
 29  4  1  0  0  0  0
 29 32  1  0  0  0  0
 30 29  1  0  0  0  0
 31 29  1  0  0  0  0
 32 33  1  0  0  0  0
 32 36  1  0  0  0  0
 33 35  1  0  0  0  0
 34 33  2  0  0  0  0
 35 38  1  0  0  0  0
 35 37  1  0  0  0  0
 38 47  1  6  0  0  0
 38 46  1  0  0  0  0
 38 39  1  0  0  0  0
 39 48  1  0  0  0  0
 39 40  1  0  0  0  0
 40 50  1  0  0  0  0
 40 51  1  0  0  0  0
 41 40  1  0  0  0  0
 41 42  1  0  0  0  0
 42 52  1  0  0  0  0
 43 53  1  0  0  0  0
 43 42  2  0  0  0  0
 44 43  1  0  0  0  0
 45 46  1  0  0  0  0
 45 44  2  0  0  0  0
 46 41  2  0  0  0  0
 49 39  1  0  0  0  0
 54 44  1  0  0  0  0
 55 45  1  0  0  0  0
M  END
>  <MODEL>
22

>  <REMARK>
 VINA RESULT:    -8.186      3.507     10.051
 INTER + INTRA:         -10.441
 INTER:                 -10.447
 INTRA:                   0.006
 UNBOUND:                 0.377
  Name = 
  6 active torsions:
  status: ('A' for Active; 'I' for Inactive)
    1  A    between atoms: C_1  and  C_2
    2  A    between atoms: C_8  and  C_9
    3  A    between atoms: C_12  and  C_13
    4  A    between atoms: C_13  and  N_14
    5  A    between atoms: N_17  and  C_18
    6  A    between atoms: C_27  and  C_28
                            x       y       z     vdW  Elec       q    Type
                         _______ _______ _______ _____ _____    ______ ____

>  <TORSDO>
F 6

$$$$
=
 OpenBabel07192307433D

 55 58  0  0  1  0  0  0  0  0999 V2000
   -1.6990   12.0380   22.0850 C   0  0  0  0  0  0  0  0  0  0  0  0
   -1.3820   11.0470   23.0220 C   0  0  0  0  0  0  0  0  0  0  0  0
   -0.2440   10.2460   22.8680 C   0  0  0  0  0  0  0  0  0  0  0  0
    0.6210   10.4160   21.7730 C   0  0  0  0  0  0  0  0  0  0  0  0
    0.2670   11.3710   20.8020 C   0  0  0  0  0  0  0  0  0  0  0  0
   -0.8630   12.1860   20.9700 C   0  0  0  0  0  0  0  0  0  0  0  0
   -2.0190   10.8970   23.8930 H   0  0  0  0  0  0  0  0  0  0  0  0
   -0.0330    9.4900   23.6220 H   0  0  0  0  0  0  0  0  0  0  0  0
   -1.0990   12.9350   20.2150 H   0  0  0  0  0  0  0  0  0  0  0  0
   -3.8890   13.0010   21.2630 C   0  0  0  0  0  0  0  0  0  0  0  0
   -5.0150   13.8110   21.4990 C   0  0  0  0  0  0  0  0  0  0  0  0
   -5.1470   14.5150   22.6950 C   0  0  0  0  0  0  0  0  0  0  0  0
   -4.1590   14.4070   23.6600 C   0  0  0  0  0  0  0  0  0  0  0  0
   -4.2830   15.0830   24.8100 F   0  0  0  0  0  0  0  0  0  0  0  0
   -3.0420   13.6050   23.4550 C   0  0  0  0  0  0  0  0  0  0  0  0
   -2.8880   12.8840   22.2580 C   0  0  0  0  0  0  0  0  0  0  0  0
   -5.7960   13.9000   20.7460 H   0  0  0  0  0  0  0  0  0  0  0  0
   -6.0130   15.1430   22.8780 H   0  0  0  0  0  0  0  0  0  0  0  0
   -2.2960   13.5410   24.2430 H   0  0  0  0  0  0  0  0  0  0  0  0
   -3.7960   12.2590   19.9540 C   0  0  0  0  0  0  0  0  0  0  0  0
   -4.3700   12.7640   19.1690 H   0  0  0  0  0  0  0  0  0  0  0  0
   -4.1960   11.2460   20.0650 H   0  0  0  0  0  0  0  0  0  0  0  0
   -2.7590   12.2090   19.6050 H   0  0  0  0  0  0  0  0  0  0  0  0
    1.0460   11.5830   19.5620 C   0  0  0  0  0  0  0  0  0  0  0  0
    0.7440   10.7630   18.5130 N   0  0  0  0  0  0  0  0  0  0  0  0
    1.8730   12.4800   19.4710 O   0  0  0  0  0  0  0  0  0  0  0  0
    1.1760   10.9830   17.6240 H   0  0  0  0  0  0  0  0  0  0  0  0
   -0.0900   10.1900   18.4990 H   0  0  0  0  0  0  0  0  0  0  0  0
    1.8650    9.5690   21.6510 C   0  0  0  0  0  0  0  0  0  0  0  0
    2.5620    9.7550   22.4740 H   0  0  0  0  0  0  0  0  0  0  0  0
    2.3720    9.8000   20.7070 H   0  0  0  0  0  0  0  0  0  0  0  0
    1.5730    8.1500   21.7050 N   0  0  0  0  0  0  0  0  0  0  0  0
    1.6590    7.4090   20.5540 C   0  0  0  0  0  0  0  0  0  0  0  0
    1.8670    7.8800   19.4450 O   0  0  0  0  0  0  0  0  0  0  0  0
    1.4760    6.0790   20.8090 N   0  0  0  0  0  0  0  0  0  0  0  0
    1.9110    7.6660   22.5230 H   0  0  0  0  0  0  0  0  0  0  0  0
    0.9430    5.8510   21.6350 H   0  0  0  0  0  0  0  0  0  0  0  0
    1.4480    5.1190   19.7270 C   0  0  2  0  0  0  0  0  0  0  0  0
    0.8490    3.7590   20.1440 C   0  0  0  0  0  0  0  0  0  0  0  0
    2.0120    2.9040   20.6700 C   0  0  0  0  0  0  0  0  0  0  0  0
    3.1620    3.4560   19.8870 C   0  0  0  0  0  0  0  0  0  0  0  0
    4.4150    2.8970   19.7040 C   0  0  0  0  0  0  0  0  0  0  0  0
    5.3560    3.6130   18.9600 C   0  0  0  0  0  0  0  0  0  0  0  0
    5.0390    4.8710   18.4220 C   0  0  0  0  0  0  0  0  0  0  0  0
    3.7760    5.4310   18.6230 C   0  0  0  0  0  0  0  0  0  0  0  0
    2.8450    4.7110   19.3540 C   0  0  0  0  0  0  0  0  0  0  0  0
    0.8970    5.5350   18.8760 H   0  0  0  0  0  0  0  0  0  0  0  0
    0.0360    3.8370   20.8740 H   0  0  0  0  0  0  0  0  0  0  0  0
    0.4340    3.2680   19.2520 H   0  0  0  0  0  0  0  0  0  0  0  0
    2.1720    3.0680   21.7410 H   0  0  0  0  0  0  0  0  0  0  0  0
    1.8450    1.8410   20.4740 H   0  0  0  0  0  0  0  0  0  0  0  0
    4.6650    1.9290   20.1240 H   0  0  0  0  0  0  0  0  0  0  0  0
    6.3460    3.1940   18.7970 H   0  0  0  0  0  0  0  0  0  0  0  0
    5.7870    5.4130   17.8490 H   0  0  0  0  0  0  0  0  0  0  0  0
    3.5340    6.4090   18.2160 H   0  0  0  0  0  0  0  0  0  0  0  0
  1 16  1  0  0  0  0
  1  2  1  0  0  0  0
  2  7  1  0  0  0  0
  3  2  2  0  0  0  0
  3  8  1  0  0  0  0
  4  3  1  0  0  0  0
  5  6  1  0  0  0  0
  5  4  2  0  0  0  0
  6  1  2  0  0  0  0
  9  6  1  0  0  0  0
 10 11  2  0  0  0  0
 10 16  1  0  0  0  0
 11 12  1  0  0  0  0
 12 18  1  0  0  0  0
 12 13  2  0  0  0  0
 13 14  1  0  0  0  0
 15 13  1  0  0  0  0
 15 19  1  0  0  0  0
 16 15  2  0  0  0  0
 17 11  1  0  0  0  0
 20 22  1  0  0  0  0
 20 10  1  0  0  0  0
 21 20  1  0  0  0  0
 23 20  1  0  0  0  0
 24  5  1  0  0  0  0
 25 24  1  0  0  0  0
 26 24  2  0  0  0  0
 27 25  1  0  0  0  0
 28 25  1  0  0  0  0
 29 32  1  0  0  0  0
 29  4  1  0  0  0  0
 29 30  1  0  0  0  0
 31 29  1  0  0  0  0
 32 36  1  0  0  0  0
 33 35  1  0  0  0  0
 33 32  1  0  0  0  0
 34 33  2  0  0  0  0
 35 37  1  0  0  0  0
 38 47  1  6  0  0  0
 38 39  1  0  0  0  0
 38 35  1  0  0  0  0
 39 40  1  0  0  0  0
 39 48  1  0  0  0  0
 40 50  1  0  0  0  0
 41 40  1  0  0  0  0
 42 41  1  0  0  0  0
 42 52  1  0  0  0  0
 43 42  2  0  0  0  0
 44 45  2  0  0  0  0
 44 43  1  0  0  0  0
 45 46  1  0  0  0  0
 46 38  1  0  0  0  0
 46 41  2  0  0  0  0
 49 39  1  0  0  0  0
 51 40  1  0  0  0  0
 53 43  1  0  0  0  0
 54 44  1  0  0  0  0
 55 45  1  0  0  0  0
M  END
>  <MODEL>
23

>  <REMARK>
 VINA RESULT:    -8.108      2.124      2.854
 INTER + INTRA:         -10.339
 INTER:                  -9.549
 INTRA:                  -0.790
 UNBOUND:                 0.377
  Name = 
  6 active torsions:
  status: ('A' for Active; 'I' for Inactive)
    1  A    between atoms: C_1  and  C_2
    2  A    between atoms: C_8  and  C_9
    3  A    between atoms: C_12  and  C_13
    4  A    between atoms: C_13  and  N_14
    5  A    between atoms: N_17  and  C_18
    6  A    between atoms: C_27  and  C_28
                            x       y       z     vdW  Elec       q    Type
                         _______ _______ _______ _____ _____    ______ ____

>  <TORSDO>
F 6

$$$$
=
 OpenBabel07192307433D

 55 58  0  0  1  0  0  0  0  0999 V2000
    0.2640   11.9720   20.8200 C   0  0  0  0  0  0  0  0  0  0  0  0
    0.6570   12.2310   19.5010 C   0  0  0  0  0  0  0  0  0  0  0  0
    0.9960   11.1880   18.6320 C   0  0  0  0  0  0  0  0  0  0  0  0
    0.9460    9.8470   19.0520 C   0  0  0  0  0  0  0  0  0  0  0  0
    0.6100    9.5940   20.3950 C   0  0  0  0  0  0  0  0  0  0  0  0
    0.2510   10.6410   21.2580 C   0  0  0  0  0  0  0  0  0  0  0  0
    0.6910   13.2560   19.1340 H   0  0  0  0  0  0  0  0  0  0  0  0
    1.2920   11.4330   17.6140 H   0  0  0  0  0  0  0  0  0  0  0  0
   -0.0300   10.4130   22.2860 H   0  0  0  0  0  0  0  0  0  0  0  0
    0.6830   14.2410   21.8580 C   0  0  0  0  0  0  0  0  0  0  0  0
    0.2650   15.2660   22.7270 C   0  0  0  0  0  0  0  0  0  0  0  0
   -0.9030   15.1330   23.4740 C   0  0  0  0  0  0  0  0  0  0  0  0
   -1.6610   13.9800   23.3510 C   0  0  0  0  0  0  0  0  0  0  0  0
   -2.7850   13.8500   24.0680 F   0  0  0  0  0  0  0  0  0  0  0  0
   -1.2760   12.9580   22.4910 C   0  0  0  0  0  0  0  0  0  0  0  0
   -0.1020   13.0710   21.7260 C   0  0  0  0  0  0  0  0  0  0  0  0
    0.8550   16.1760   22.8280 H   0  0  0  0  0  0  0  0  0  0  0  0
   -1.2250   15.9210   24.1480 H   0  0  0  0  0  0  0  0  0  0  0  0
   -1.9060   12.0750   22.4180 H   0  0  0  0  0  0  0  0  0  0  0  0
    1.9540   14.4360   21.0700 C   0  0  0  0  0  0  0  0  0  0  0  0
    1.7380   14.6900   20.0260 H   0  0  0  0  0  0  0  0  0  0  0  0
    2.5490   13.5180   21.0780 H   0  0  0  0  0  0  0  0  0  0  0  0
    2.5460   15.2610   21.4810 H   0  0  0  0  0  0  0  0  0  0  0  0
    0.6080    8.2350   20.9810 C   0  0  0  0  0  0  0  0  0  0  0  0
    1.8320    7.6960   21.2560 N   0  0  0  0  0  0  0  0  0  0  0  0
   -0.4350    7.6570   21.2530 O   0  0  0  0  0  0  0  0  0  0  0  0
    1.8400    6.8260   21.7740 H   0  0  0  0  0  0  0  0  0  0  0  0
    2.6780    8.2510   21.2600 H   0  0  0  0  0  0  0  0  0  0  0  0
    1.2760    8.7360   18.0830 C   0  0  0  0  0  0  0  0  0  0  0  0
    1.0950    9.0380   17.0470 H   0  0  0  0  0  0  0  0  0  0  0  0
    0.6520    7.8630   18.3050 H   0  0  0  0  0  0  0  0  0  0  0  0
    2.6730    8.3560   18.1370 N   0  0  0  0  0  0  0  0  0  0  0  0
    2.9980    7.0250   18.1950 C   0  0  0  0  0  0  0  0  0  0  0  0
    2.1830    6.1210   18.3100 O   0  0  0  0  0  0  0  0  0  0  0  0
    4.3510    6.8420   18.1120 N   0  0  0  0  0  0  0  0  0  0  0  0
    3.2960    8.8980   17.5570 H   0  0  0  0  0  0  0  0  0  0  0  0
    4.9250    7.6170   18.4080 H   0  0  0  0  0  0  0  0  0  0  0  0
    4.9240    5.5200   18.2310 C   0  0  2  0  0  0  0  0  0  0  0  0
    6.1970    5.4910   19.1040 C   0  0  0  0  0  0  0  0  0  0  0  0
    7.3850    5.7560   18.1660 C   0  0  0  0  0  0  0  0  0  0  0  0
    6.8710    5.2020   16.8750 C   0  0  0  0  0  0  0  0  0  0  0  0
    7.5920    4.8840   15.7370 C   0  0  0  0  0  0  0  0  0  0  0  0
    6.8940    4.4120   14.6230 C   0  0  0  0  0  0  0  0  0  0  0  0
    5.4970    4.2760   14.6550 C   0  0  0  0  0  0  0  0  0  0  0  0
    4.7770    4.6110   15.8040 C   0  0  0  0  0  0  0  0  0  0  0  0
    5.4770    5.0690   16.9090 C   0  0  0  0  0  0  0  0  0  0  0  0
    4.1740    4.8240   18.6240 H   0  0  0  0  0  0  0  0  0  0  0  0
    6.1740    6.1940   19.9440 H   0  0  0  0  0  0  0  0  0  0  0  0
    6.3090    4.4830   19.5300 H   0  0  0  0  0  0  0  0  0  0  0  0
    7.5780    6.8300   18.0650 H   0  0  0  0  0  0  0  0  0  0  0  0
    8.2860    5.2430   18.5120 H   0  0  0  0  0  0  0  0  0  0  0  0
    8.6700    4.9950   15.7060 H   0  0  0  0  0  0  0  0  0  0  0  0
    7.4370    4.1500   13.7180 H   0  0  0  0  0  0  0  0  0  0  0  0
    4.9720    3.9100   13.7760 H   0  0  0  0  0  0  0  0  0  0  0  0
    3.6960    4.5160   15.8260 H   0  0  0  0  0  0  0  0  0  0  0  0
  1  6  1  0  0  0  0
  1 16  1  0  0  0  0
  2  1  2  0  0  0  0
  3  4  2  0  0  0  0
  3  2  1  0  0  0  0
  4  5  1  0  0  0  0
  5 24  1  0  0  0  0
  5  6  2  0  0  0  0
  6  9  1  0  0  0  0
  7  2  1  0  0  0  0
  8  3  1  0  0  0  0
 10 11  1  0  0  0  0
 11 17  1  0  0  0  0
 11 12  2  0  0  0  0
 12 18  1  0  0  0  0
 13 12  1  0  0  0  0
 13 14  1  0  0  0  0
 15 13  2  0  0  0  0
 16 10  2  0  0  0  0
 16 15  1  0  0  0  0
 19 15  1  0  0  0  0
 20 22  1  0  0  0  0
 20 23  1  0  0  0  0
 20 10  1  0  0  0  0
 21 20  1  0  0  0  0
 24 26  2  0  0  0  0
 24 25  1  0  0  0  0
 25 28  1  0  0  0  0
 25 27  1  0  0  0  0
 29 32  1  0  0  0  0
 29 31  1  0  0  0  0
 29  4  1  0  0  0  0
 30 29  1  0  0  0  0
 32 33  1  0  0  0  0
 33 34  2  0  0  0  0
 35 33  1  0  0  0  0
 35 38  1  0  0  0  0
 35 37  1  0  0  0  0
 36 32  1  0  0  0  0
 38 47  1  1  0  0  0
 38 39  1  0  0  0  0
 39 49  1  0  0  0  0
 39 48  1  0  0  0  0
 40 51  1  0  0  0  0
 40 39  1  0  0  0  0
 41 46  1  0  0  0  0
 41 40  1  0  0  0  0
 42 41  2  0  0  0  0
 43 44  2  0  0  0  0
 43 42  1  0  0  0  0
 44 45  1  0  0  0  0
 45 55  1  0  0  0  0
 45 46  2  0  0  0  0
 46 38  1  0  0  0  0
 50 40  1  0  0  0  0
 52 42  1  0  0  0  0
 53 43  1  0  0  0  0
 54 44  1  0  0  0  0
M  END
>  <MODEL>
24

>  <REMARK>
 VINA RESULT:    -8.072      2.108      3.103
 INTER + INTRA:         -10.291
 INTER:                  -9.693
 INTRA:                  -0.598
 UNBOUND:                 0.377
  Name = 
  6 active torsions:
  status: ('A' for Active; 'I' for Inactive)
    1  A    between atoms: C_1  and  C_2
    2  A    between atoms: C_8  and  C_9
    3  A    between atoms: C_12  and  C_13
    4  A    between atoms: C_13  and  N_14
    5  A    between atoms: N_17  and  C_18
    6  A    between atoms: C_27  and  C_28
                            x       y       z     vdW  Elec       q    Type
                         _______ _______ _______ _____ _____    ______ ____

>  <TORSDO>
F 6

$$$$
=
 OpenBabel07192307433D

 55 58  0  0  1  0  0  0  0  0999 V2000
   -0.9700   11.4520   22.3260 C   0  0  0  0  0  0  0  0  0  0  0  0
   -0.2960   10.4300   23.0050 C   0  0  0  0  0  0  0  0  0  0  0  0
    0.5760    9.5690   22.3290 C   0  0  0  0  0  0  0  0  0  0  0  0
    0.8090    9.7070   20.9500 C   0  0  0  0  0  0  0  0  0  0  0  0
    0.0840   10.6960   20.2590 C   0  0  0  0  0  0  0  0  0  0  0  0
   -0.7740   11.5700   20.9430 C   0  0  0  0  0  0  0  0  0  0  0  0
   -0.4370   10.3030   24.0770 H   0  0  0  0  0  0  0  0  0  0  0  0
    1.0830    8.7900   22.8960 H   0  0  0  0  0  0  0  0  0  0  0  0
   -1.3030   12.3430   20.3870 H   0  0  0  0  0  0  0  0  0  0  0  0
   -1.5950   13.7380   23.2130 C   0  0  0  0  0  0  0  0  0  0  0  0
   -2.5160   14.5580   23.8900 C   0  0  0  0  0  0  0  0  0  0  0  0
   -3.6930   14.0270   24.4130 C   0  0  0  0  0  0  0  0  0  0  0  0
   -3.9570   12.6760   24.2550 C   0  0  0  0  0  0  0  0  0  0  0  0
   -5.0880   12.1610   24.7570 F   0  0  0  0  0  0  0  0  0  0  0  0
   -3.0690   11.8460   23.5800 C   0  0  0  0  0  0  0  0  0  0  0  0
   -1.8770   12.3610   23.0420 C   0  0  0  0  0  0  0  0  0  0  0  0
   -2.3150   15.6210   24.0170 H   0  0  0  0  0  0  0  0  0  0  0  0
   -4.4020   14.6570   24.9400 H   0  0  0  0  0  0  0  0  0  0  0  0
   -3.3210   10.7950   23.4700 H   0  0  0  0  0  0  0  0  0  0  0  0
   -0.3380   14.3640   22.6640 C   0  0  0  0  0  0  0  0  0  0  0  0
   -0.3230   14.3290   21.5690 H   0  0  0  0  0  0  0  0  0  0  0  0
    0.5430   13.8280   23.0310 H   0  0  0  0  0  0  0  0  0  0  0  0
   -0.2710   15.4200   22.9480 H   0  0  0  0  0  0  0  0  0  0  0  0
    0.1750   10.8820   18.7940 C   0  0  0  0  0  0  0  0  0  0  0  0
    1.0900   11.7960   18.3580 N   0  0  0  0  0  0  0  0  0  0  0  0
   -0.4960   10.2120   18.0210 O   0  0  0  0  0  0  0  0  0  0  0  0
    1.2510   11.8380   17.3590 H   0  0  0  0  0  0  0  0  0  0  0  0
    1.8070   12.1730   18.9640 H   0  0  0  0  0  0  0  0  0  0  0  0
    1.7880    8.7920   20.2510 C   0  0  0  0  0  0  0  0  0  0  0  0
    2.7880    9.2350   20.2010 H   0  0  0  0  0  0  0  0  0  0  0  0
    1.4410    8.6010   19.2290 H   0  0  0  0  0  0  0  0  0  0  0  0
    1.9570    7.5320   20.9470 N   0  0  0  0  0  0  0  0  0  0  0  0
    1.4720    6.3860   20.3720 C   0  0  0  0  0  0  0  0  0  0  0  0
    0.8040    6.3570   19.3480 O   0  0  0  0  0  0  0  0  0  0  0  0
    1.8270    5.2820   21.0970 N   0  0  0  0  0  0  0  0  0  0  0  0
    2.8430    7.4060   21.4130 H   0  0  0  0  0  0  0  0  0  0  0  0
    2.0170    5.4320   22.0760 H   0  0  0  0  0  0  0  0  0  0  0  0
    1.3550    3.9680   20.7160 C   0  0  2  0  0  0  0  0  0  0  0  0
    1.6720    2.8860   21.7710 C   0  0  0  0  0  0  0  0  0  0  0  0
    3.0590    2.3220   21.4250 C   0  0  0  0  0  0  0  0  0  0  0  0
    3.0980    2.5210   19.9420 C   0  0  0  0  0  0  0  0  0  0  0  0
    3.9610    1.9440   19.0270 C   0  0  0  0  0  0  0  0  0  0  0  0
    3.8400    2.3060   17.6840 C   0  0  0  0  0  0  0  0  0  0  0  0
    2.8730    3.2400   17.2770 C   0  0  0  0  0  0  0  0  0  0  0  0
    2.0150    3.8260   18.2100 C   0  0  0  0  0  0  0  0  0  0  0  0
    2.1340    3.4540   19.5390 C   0  0  0  0  0  0  0  0  0  0  0  0
    0.2790    4.0040   20.5160 H   0  0  0  0  0  0  0  0  0  0  0  0
    1.6230    3.2460   22.8040 H   0  0  0  0  0  0  0  0  0  0  0  0
    0.9350    2.0760   21.6760 H   0  0  0  0  0  0  0  0  0  0  0  0
    3.8540    2.9040   21.9040 H   0  0  0  0  0  0  0  0  0  0  0  0
    3.1420    1.2690   21.7080 H   0  0  0  0  0  0  0  0  0  0  0  0
    4.7140    1.2280   19.3400 H   0  0  0  0  0  0  0  0  0  0  0  0
    4.5030    1.8640   16.9440 H   0  0  0  0  0  0  0  0  0  0  0  0
    2.7980    3.5120   16.2270 H   0  0  0  0  0  0  0  0  0  0  0  0
    1.2750    4.5560   17.8980 H   0  0  0  0  0  0  0  0  0  0  0  0
  1  2  1  0  0  0  0
  1 16  1  0  0  0  0
  2  7  1  0  0  0  0
  3  8  1  0  0  0  0
  3  2  2  0  0  0  0
  4  3  1  0  0  0  0
  5  6  1  0  0  0  0
  5  4  2  0  0  0  0
  6  1  2  0  0  0  0
  9  6  1  0  0  0  0
 10 11  1  0  0  0  0
 11 17  1  0  0  0  0
 11 12  2  0  0  0  0
 12 18  1  0  0  0  0
 13 12  1  0  0  0  0
 13 14  1  0  0  0  0
 15 13  2  0  0  0  0
 16 10  2  0  0  0  0
 16 15  1  0  0  0  0
 19 15  1  0  0  0  0
 20 23  1  0  0  0  0
 20 22  1  0  0  0  0
 20 10  1  0  0  0  0
 21 20  1  0  0  0  0
 24  5  1  0  0  0  0
 25 24  1  0  0  0  0
 25 28  1  0  0  0  0
 26 24  2  0  0  0  0
 27 25  1  0  0  0  0
 29 32  1  0  0  0  0
 29  4  1  0  0  0  0
 30 29  1  0  0  0  0
 31 29  1  0  0  0  0
 32 36  1  0  0  0  0
 33 32  1  0  0  0  0
 33 35  1  0  0  0  0
 34 33  2  0  0  0  0
 35 37  1  0  0  0  0
 38 47  1  6  0  0  0
 38 35  1  0  0  0  0
 38 39  1  0  0  0  0
 39 48  1  0  0  0  0
 40 51  1  0  0  0  0
 40 39  1  0  0  0  0
 40 50  1  0  0  0  0
 41 40  1  0  0  0  0
 42 52  1  0  0  0  0
 42 41  2  0  0  0  0
 43 42  1  0  0  0  0
 44 43  2  0  0  0  0
 44 45  1  0  0  0  0
 45 46  2  0  0  0  0
 46 41  1  0  0  0  0
 46 38  1  0  0  0  0
 49 39  1  0  0  0  0
 53 43  1  0  0  0  0
 54 44  1  0  0  0  0
 55 45  1  0  0  0  0
M  END
>  <MODEL>
25

>  <REMARK>
 VINA RESULT:    -8.040      2.499      2.783
 INTER + INTRA:         -10.248
 INTER:                  -9.849
 INTRA:                  -0.399
 UNBOUND:                 0.377
  Name = 
  6 active torsions:
  status: ('A' for Active; 'I' for Inactive)
    1  A    between atoms: C_1  and  C_2
    2  A    between atoms: C_8  and  C_9
    3  A    between atoms: C_12  and  C_13
    4  A    between atoms: C_13  and  N_14
    5  A    between atoms: N_17  and  C_18
    6  A    between atoms: C_27  and  C_28
                            x       y       z     vdW  Elec       q    Type
                         _______ _______ _______ _____ _____    ______ ____

>  <TORSDO>
F 6

$$$$
=
 OpenBabel07192307433D

 55 58  0  0  1  0  0  0  0  0999 V2000
   -1.2660   11.5480   19.9060 C   0  0  0  0  0  0  0  0  0  0  0  0
   -0.7060   11.9260   18.6800 C   0  0  0  0  0  0  0  0  0  0  0  0
    0.4090   11.2580   18.1600 C   0  0  0  0  0  0  0  0  0  0  0  0
    0.9970   10.1820   18.8480 C   0  0  0  0  0  0  0  0  0  0  0  0
    0.4690    9.8440   20.1070 C   0  0  0  0  0  0  0  0  0  0  0  0
   -0.6610   10.5020   20.6170 C   0  0  0  0  0  0  0  0  0  0  0  0
   -1.1440   12.7440   18.1100 H   0  0  0  0  0  0  0  0  0  0  0  0
    0.8100   11.5820   17.2010 H   0  0  0  0  0  0  0  0  0  0  0  0
   -1.0630   10.2020   21.5830 H   0  0  0  0  0  0  0  0  0  0  0  0
   -3.6790   12.2930   19.7530 C   0  0  0  0  0  0  0  0  0  0  0  0
   -4.7750   12.9590   20.3320 C   0  0  0  0  0  0  0  0  0  0  0  0
   -4.6510   13.5910   21.5680 C   0  0  0  0  0  0  0  0  0  0  0  0
   -3.4360   13.5530   22.2330 C   0  0  0  0  0  0  0  0  0  0  0  0
   -3.3140   14.1600   23.4210 F   0  0  0  0  0  0  0  0  0  0  0  0
   -2.3410   12.8920   21.6870 C   0  0  0  0  0  0  0  0  0  0  0  0
   -2.4430   12.2450   20.4430 C   0  0  0  0  0  0  0  0  0  0  0  0
   -5.7330   12.9920   19.8170 H   0  0  0  0  0  0  0  0  0  0  0  0
   -5.4940   14.1090   22.0150 H   0  0  0  0  0  0  0  0  0  0  0  0
   -1.4100   12.8780   22.2470 H   0  0  0  0  0  0  0  0  0  0  0  0
   -3.8670   11.6230   18.4160 C   0  0  0  0  0  0  0  0  0  0  0  0
   -3.2180   10.7460   18.3170 H   0  0  0  0  0  0  0  0  0  0  0  0
   -3.6200   12.3180   17.6070 H   0  0  0  0  0  0  0  0  0  0  0  0
   -4.8970   11.2710   18.2960 H   0  0  0  0  0  0  0  0  0  0  0  0
    1.0540    8.7900   20.9670 C   0  0  0  0  0  0  0  0  0  0  0  0
    1.8510    9.2200   21.9890 N   0  0  0  0  0  0  0  0  0  0  0  0
    0.7880    7.6080   20.8000 O   0  0  0  0  0  0  0  0  0  0  0  0
    2.1490    8.5210   22.6580 H   0  0  0  0  0  0  0  0  0  0  0  0
    1.8820   10.1890   22.2790 H   0  0  0  0  0  0  0  0  0  0  0  0
    2.1730    9.4500   18.2460 C   0  0  0  0  0  0  0  0  0  0  0  0
    3.0060    9.3760   18.9520 H   0  0  0  0  0  0  0  0  0  0  0  0
    2.5180    9.9850   17.3550 H   0  0  0  0  0  0  0  0  0  0  0  0
    1.8460    8.0830   17.8900 N   0  0  0  0  0  0  0  0  0  0  0  0
    2.7020    7.0770   18.2600 C   0  0  0  0  0  0  0  0  0  0  0  0
    3.7900    7.2570   18.7870 O   0  0  0  0  0  0  0  0  0  0  0  0
    2.1810    5.8500   17.9570 N   0  0  0  0  0  0  0  0  0  0  0  0
    0.8720    7.8330   17.9670 H   0  0  0  0  0  0  0  0  0  0  0  0
    1.5060    5.8230   17.2080 H   0  0  0  0  0  0  0  0  0  0  0  0
    2.9490    4.6470   18.1890 C   0  0  2  0  0  0  0  0  0  0  0  0
    2.6280    3.5230   17.1800 C   0  0  0  0  0  0  0  0  0  0  0  0
    1.4650    2.7130   17.7720 C   0  0  0  0  0  0  0  0  0  0  0  0
    1.6900    2.9030   19.2400 C   0  0  0  0  0  0  0  0  0  0  0  0
    1.1460    2.1770   20.2860 C   0  0  0  0  0  0  0  0  0  0  0  0
    1.4670    2.5570   21.5900 C   0  0  0  0  0  0  0  0  0  0  0  0
    2.3100    3.6540   21.8320 C   0  0  0  0  0  0  0  0  0  0  0  0
    2.8430    4.3870   20.7700 C   0  0  0  0  0  0  0  0  0  0  0  0
    2.5280    3.9980   19.4780 C   0  0  0  0  0  0  0  0  0  0  0  0
    4.0190    4.8810   18.1750 H   0  0  0  0  0  0  0  0  0  0  0  0
    2.4030    3.8850   16.1710 H   0  0  0  0  0  0  0  0  0  0  0  0
    3.5040    2.8630   17.0970 H   0  0  0  0  0  0  0  0  0  0  0  0
    0.4980    3.1380   17.4810 H   0  0  0  0  0  0  0  0  0  0  0  0
    1.5190    1.6620   17.4730 H   0  0  0  0  0  0  0  0  0  0  0  0
    0.4890    1.3340   20.1020 H   0  0  0  0  0  0  0  0  0  0  0  0
    1.0580    2.0000   22.4310 H   0  0  0  0  0  0  0  0  0  0  0  0
    2.5450    3.9360   22.8550 H   0  0  0  0  0  0  0  0  0  0  0  0
    3.4860    5.2420   20.9560 H   0  0  0  0  0  0  0  0  0  0  0  0
  1 16  1  0  0  0  0
  1  6  1  0  0  0  0
  2  1  2  0  0  0  0
  3  2  1  0  0  0  0
  3  4  2  0  0  0  0
  4  5  1  0  0  0  0
  5  6  2  0  0  0  0
  5 24  1  0  0  0  0
  6  9  1  0  0  0  0
  7  2  1  0  0  0  0
  8  3  1  0  0  0  0
 10 11  2  0  0  0  0
 10 16  1  0  0  0  0
 11 12  1  0  0  0  0
 12 18  1  0  0  0  0
 12 13  2  0  0  0  0
 13 14  1  0  0  0  0
 15 13  1  0  0  0  0
 15 19  1  0  0  0  0
 16 15  2  0  0  0  0
 17 11  1  0  0  0  0
 20 10  1  0  0  0  0
 21 20  1  0  0  0  0
 22 20  1  0  0  0  0
 23 20  1  0  0  0  0
 24 25  1  0  0  0  0
 25 28  1  0  0  0  0
 25 27  1  0  0  0  0
 26 24  2  0  0  0  0
 29  4  1  0  0  0  0
 29 30  1  0  0  0  0
 31 29  1  0  0  0  0
 32 36  1  0  0  0  0
 32 29  1  0  0  0  0
 32 33  1  0  0  0  0
 33 34  2  0  0  0  0
 35 38  1  0  0  0  0
 35 33  1  0  0  0  0
 37 35  1  0  0  0  0
 38 47  1  1  0  0  0
 38 46  1  0  0  0  0
 39 40  1  0  0  0  0
 39 38  1  0  0  0  0
 40 41  1  0  0  0  0
 41 46  2  0  0  0  0
 41 42  1  0  0  0  0
 42 43  2  0  0  0  0
 43 44  1  0  0  0  0
 43 53  1  0  0  0  0
 44 54  1  0  0  0  0
 45 55  1  0  0  0  0
 45 44  2  0  0  0  0
 46 45  1  0  0  0  0
 48 39  1  0  0  0  0
 49 39  1  0  0  0  0
 50 40  1  0  0  0  0
 51 40  1  0  0  0  0
 52 42  1  0  0  0  0
M  END
>  <MODEL>
26

>  <REMARK>
 VINA RESULT:    -7.989      2.650      4.044
 INTER + INTRA:         -10.181
 INTER:                  -9.168
 INTRA:                  -1.013
 UNBOUND:                 0.377
  Name = 
  6 active torsions:
  status: ('A' for Active; 'I' for Inactive)
    1  A    between atoms: C_1  and  C_2
    2  A    between atoms: C_8  and  C_9
    3  A    between atoms: C_12  and  C_13
    4  A    between atoms: C_13  and  N_14
    5  A    between atoms: N_17  and  C_18
    6  A    between atoms: C_27  and  C_28
                            x       y       z     vdW  Elec       q    Type
                         _______ _______ _______ _____ _____    ______ ____

>  <TORSDO>
F 6

$$$$
=
 OpenBabel07192307433D

 55 58  0  0  1  0  0  0  0  0999 V2000
    2.2890    7.0830   18.3980 C   0  0  0  0  0  0  0  0  0  0  0  0
    2.1170    8.0780   17.4270 C   0  0  0  0  0  0  0  0  0  0  0  0
    1.5780    9.3250   17.7610 C   0  0  0  0  0  0  0  0  0  0  0  0
    1.1990    9.6230   19.0820 C   0  0  0  0  0  0  0  0  0  0  0  0
    1.3170    8.6010   20.0420 C   0  0  0  0  0  0  0  0  0  0  0  0
    1.8760    7.3580   19.7080 C   0  0  0  0  0  0  0  0  0  0  0  0
    2.4160    7.8900   16.3960 H   0  0  0  0  0  0  0  0  0  0  0  0
    1.4660   10.0710   16.9770 H   0  0  0  0  0  0  0  0  0  0  0  0
    1.9780    6.5940   20.4780 H   0  0  0  0  0  0  0  0  0  0  0  0
    4.1920    5.6360   17.5680 C   0  0  0  0  0  0  0  0  0  0  0  0
    4.6910    4.3550   17.2670 C   0  0  0  0  0  0  0  0  0  0  0  0
    3.8870    3.2260   17.4130 C   0  0  0  0  0  0  0  0  0  0  0  0
    2.5860    3.3720   17.8650 C   0  0  0  0  0  0  0  0  0  0  0  0
    1.8110    2.2880   18.0060 F   0  0  0  0  0  0  0  0  0  0  0  0
    2.0730    4.6250   18.1800 C   0  0  0  0  0  0  0  0  0  0  0  0
    2.8660    5.7780   18.0430 C   0  0  0  0  0  0  0  0  0  0  0  0
    5.7130    4.2330   16.9120 H   0  0  0  0  0  0  0  0  0  0  0  0
    4.2690    2.2380   17.1770 H   0  0  0  0  0  0  0  0  0  0  0  0
    1.0510    4.6920   18.5420 H   0  0  0  0  0  0  0  0  0  0  0  0
    5.1040    6.8240   17.3960 C   0  0  0  0  0  0  0  0  0  0  0  0
    5.0050    7.2590   16.3950 H   0  0  0  0  0  0  0  0  0  0  0  0
    6.1480    6.5230   17.5310 H   0  0  0  0  0  0  0  0  0  0  0  0
    4.8540    7.6150   18.1110 H   0  0  0  0  0  0  0  0  0  0  0  0
    0.8700    8.7600   21.4440 C   0  0  0  0  0  0  0  0  0  0  0  0
   -0.3760    8.2860   21.7380 N   0  0  0  0  0  0  0  0  0  0  0  0
    1.6030    9.2390   22.2980 O   0  0  0  0  0  0  0  0  0  0  0  0
   -0.6390    8.2720   22.7150 H   0  0  0  0  0  0  0  0  0  0  0  0
   -0.8850    7.6800   21.1070 H   0  0  0  0  0  0  0  0  0  0  0  0
    0.6600   10.9910   19.4260 C   0  0  0  0  0  0  0  0  0  0  0  0
   -0.1880   10.9280   20.1160 H   0  0  0  0  0  0  0  0  0  0  0  0
    0.3270   11.4920   18.5110 H   0  0  0  0  0  0  0  0  0  0  0  0
    1.6430   11.8170   20.0970 N   0  0  0  0  0  0  0  0  0  0  0  0
    1.9500   13.0450   19.5700 C   0  0  0  0  0  0  0  0  0  0  0  0
    1.5270   13.4620   18.5020 O   0  0  0  0  0  0  0  0  0  0  0  0
    2.7950   13.7380   20.3920 N   0  0  0  0  0  0  0  0  0  0  0  0
    1.6060   11.8090   21.1060 H   0  0  0  0  0  0  0  0  0  0  0  0
    3.3700   13.1860   21.0100 H   0  0  0  0  0  0  0  0  0  0  0  0
    3.3130   15.0290   19.9960 C   0  0  2  0  0  0  0  0  0  0  0  0
    3.2670   15.2550   18.4700 C   0  0  0  0  0  0  0  0  0  0  0  0
    4.5900   14.7200   17.9020 C   0  0  0  0  0  0  0  0  0  0  0  0
    5.5140   14.9260   19.0610 C   0  0  0  0  0  0  0  0  0  0  0  0
    6.8980   14.9120   19.0610 C   0  0  0  0  0  0  0  0  0  0  0  0
    7.5610   15.0900   20.2770 C   0  0  0  0  0  0  0  0  0  0  0  0
    6.8400   15.2670   21.4690 C   0  0  0  0  0  0  0  0  0  0  0  0
    5.4430   15.2670   21.4600 C   0  0  0  0  0  0  0  0  0  0  0  0
    4.7920   15.1000   20.2480 C   0  0  0  0  0  0  0  0  0  0  0  0
    2.7670   15.8240   20.5170 H   0  0  0  0  0  0  0  0  0  0  0  0
    2.3990   14.8000   17.9800 H   0  0  0  0  0  0  0  0  0  0  0  0
    3.2170   16.3360   18.2740 H   0  0  0  0  0  0  0  0  0  0  0  0
    4.5170   13.6530   17.6630 H   0  0  0  0  0  0  0  0  0  0  0  0
    4.8990   15.2820   17.0160 H   0  0  0  0  0  0  0  0  0  0  0  0
    7.4580   14.7680   18.1430 H   0  0  0  0  0  0  0  0  0  0  0  0
    8.6480   15.0890   20.3040 H   0  0  0  0  0  0  0  0  0  0  0  0
    7.3750   15.4010   22.4060 H   0  0  0  0  0  0  0  0  0  0  0  0
    4.8850   15.3930   22.3830 H   0  0  0  0  0  0  0  0  0  0  0  0
  1  6  1  0  0  0  0
  2  3  1  0  0  0  0
  2  1  2  0  0  0  0
  3  4  2  0  0  0  0
  4 29  1  0  0  0  0
  4  5  1  0  0  0  0
  5 24  1  0  0  0  0
  6  5  2  0  0  0  0
  6  9  1  0  0  0  0
  7  2  1  0  0  0  0
  8  3  1  0  0  0  0
 10 16  1  0  0  0  0
 11 12  1  0  0  0  0
 11 10  2  0  0  0  0
 12 13  2  0  0  0  0
 13 14  1  0  0  0  0
 13 15  1  0  0  0  0
 15 19  1  0  0  0  0
 16 15  2  0  0  0  0
 16  1  1  0  0  0  0
 17 11  1  0  0  0  0
 18 12  1  0  0  0  0
 20 22  1  0  0  0  0
 20 10  1  0  0  0  0
 20 23  1  0  0  0  0
 21 20  1  0  0  0  0
 24 25  1  0  0  0  0
 24 26  2  0  0  0  0
 25 27  1  0  0  0  0
 28 25  1  0  0  0  0
 29 32  1  0  0  0  0
 29 30  1  0  0  0  0
 31 29  1  0  0  0  0
 32 36  1  0  0  0  0
 33 32  1  0  0  0  0
 33 35  1  0  0  0  0
 34 33  2  0  0  0  0
 35 37  1  0  0  0  0
 38 46  1  0  0  0  0
 38 35  1  0  0  0  0
 38 47  1  1  0  0  0
 39 38  1  0  0  0  0
 40 39  1  0  0  0  0
 40 41  1  0  0  0  0
 41 42  2  0  0  0  0
 41 46  1  0  0  0  0
 42 43  1  0  0  0  0
 43 53  1  0  0  0  0
 43 44  2  0  0  0  0
 44 54  1  0  0  0  0
 45 44  1  0  0  0  0
 45 55  1  0  0  0  0
 46 45  2  0  0  0  0
 48 39  1  0  0  0  0
 49 39  1  0  0  0  0
 50 40  1  0  0  0  0
 51 40  1  0  0  0  0
 52 42  1  0  0  0  0
M  END
>  <MODEL>
27

>  <REMARK>
 VINA RESULT:    -7.963      4.783      8.918
 INTER + INTRA:         -10.147
 INTER:                 -10.211
 INTRA:                   0.064
 UNBOUND:                 0.377
  Name = 
  6 active torsions:
  status: ('A' for Active; 'I' for Inactive)
    1  A    between atoms: C_1  and  C_2
    2  A    between atoms: C_8  and  C_9
    3  A    between atoms: C_12  and  C_13
    4  A    between atoms: C_13  and  N_14
    5  A    between atoms: N_17  and  C_18
    6  A    between atoms: C_27  and  C_28
                            x       y       z     vdW  Elec       q    Type
                         _______ _______ _______ _____ _____    ______ ____

>  <TORSDO>
F 6

$$$$
=
 OpenBabel07192307433D

 55 58  0  0  1  0  0  0  0  0999 V2000
   -1.3150   10.3650   18.6040 C   0  0  0  0  0  0  0  0  0  0  0  0
   -0.0530    9.9400   18.1710 C   0  0  0  0  0  0  0  0  0  0  0  0
    0.9550    9.6200   19.0890 C   0  0  0  0  0  0  0  0  0  0  0  0
    0.7300    9.7080   20.4740 C   0  0  0  0  0  0  0  0  0  0  0  0
   -0.5190   10.1940   20.9040 C   0  0  0  0  0  0  0  0  0  0  0  0
   -1.5330   10.4940   19.9820 C   0  0  0  0  0  0  0  0  0  0  0  0
    0.1530    9.8430   17.1060 H   0  0  0  0  0  0  0  0  0  0  0  0
    1.9200    9.2900   18.7090 H   0  0  0  0  0  0  0  0  0  0  0  0
   -2.4990   10.8440   20.3460 H   0  0  0  0  0  0  0  0  0  0  0  0
   -3.4880   11.4950   17.9700 C   0  0  0  0  0  0  0  0  0  0  0  0
   -4.4550   11.7860   16.9900 C   0  0  0  0  0  0  0  0  0  0  0  0
   -4.3370   11.2730   15.7000 C   0  0  0  0  0  0  0  0  0  0  0  0
   -3.2510   10.4740   15.3820 C   0  0  0  0  0  0  0  0  0  0  0  0
   -3.1360    9.9790   14.1420 F   0  0  0  0  0  0  0  0  0  0  0  0
   -2.2760   10.1810   16.3290 C   0  0  0  0  0  0  0  0  0  0  0  0
   -2.3730   10.6890   17.6360 C   0  0  0  0  0  0  0  0  0  0  0  0
   -5.3110   12.4140   17.2320 H   0  0  0  0  0  0  0  0  0  0  0  0
   -5.0840   11.4930   14.9430 H   0  0  0  0  0  0  0  0  0  0  0  0
   -1.4350    9.5590   16.0340 H   0  0  0  0  0  0  0  0  0  0  0  0
   -3.6610   12.0780   19.3490 C   0  0  0  0  0  0  0  0  0  0  0  0
   -4.1110   11.3500   20.0340 H   0  0  0  0  0  0  0  0  0  0  0  0
   -4.3160   12.9540   19.3100 H   0  0  0  0  0  0  0  0  0  0  0  0
   -2.6940   12.3610   19.7780 H   0  0  0  0  0  0  0  0  0  0  0  0
   -0.8460   10.4150   22.3310 C   0  0  0  0  0  0  0  0  0  0  0  0
   -0.8740    9.3030   23.1230 N   0  0  0  0  0  0  0  0  0  0  0  0
   -1.0260   11.5390   22.7780 O   0  0  0  0  0  0  0  0  0  0  0  0
   -0.9680    9.4570   24.1190 H   0  0  0  0  0  0  0  0  0  0  0  0
   -0.4960    8.4150   22.8190 H   0  0  0  0  0  0  0  0  0  0  0  0
    1.8180    9.3170   21.4450 C   0  0  0  0  0  0  0  0  0  0  0  0
    1.4470    9.2830   22.4740 H   0  0  0  0  0  0  0  0  0  0  0  0
    2.6330   10.0470   21.3920 H   0  0  0  0  0  0  0  0  0  0  0  0
    2.3420    7.9920   21.1800 N   0  0  0  0  0  0  0  0  0  0  0  0
    1.4640    6.9520   21.0090 C   0  0  0  0  0  0  0  0  0  0  0  0
    0.2550    7.0380   21.1680 O   0  0  0  0  0  0  0  0  0  0  0  0
    2.1180    5.8080   20.6440 N   0  0  0  0  0  0  0  0  0  0  0  0
    3.1390    7.9530   20.5610 H   0  0  0  0  0  0  0  0  0  0  0  0
    3.0870    5.7410   20.9170 H   0  0  0  0  0  0  0  0  0  0  0  0
    1.3960    4.5650   20.4860 C   0  0  2  0  0  0  0  0  0  0  0  0
    1.6270    3.5810   21.6530 C   0  0  0  0  0  0  0  0  0  0  0  0
    2.8560    2.7370   21.2850 C   0  0  0  0  0  0  0  0  0  0  0  0
    2.7820    2.7420   19.7900 C   0  0  0  0  0  0  0  0  0  0  0  0
    3.4400    1.9100   18.9010 C   0  0  0  0  0  0  0  0  0  0  0  0
    3.2500    2.1210   17.5340 C   0  0  0  0  0  0  0  0  0  0  0  0
    2.4210    3.1570   17.0760 C   0  0  0  0  0  0  0  0  0  0  0  0
    1.7700    3.9990   17.9800 C   0  0  0  0  0  0  0  0  0  0  0  0
    1.9560    3.7780   19.3360 C   0  0  0  0  0  0  0  0  0  0  0  0
    0.3260    4.7710   20.3640 H   0  0  0  0  0  0  0  0  0  0  0  0
    1.7420    4.0680   22.6270 H   0  0  0  0  0  0  0  0  0  0  0  0
    0.7570    2.9130   21.7280 H   0  0  0  0  0  0  0  0  0  0  0  0
    3.7820    3.2200   21.6170 H   0  0  0  0  0  0  0  0  0  0  0  0
    2.7870    1.7290   21.7040 H   0  0  0  0  0  0  0  0  0  0  0  0
    4.0870    1.1130   19.2520 H   0  0  0  0  0  0  0  0  0  0  0  0
    3.7510    1.4780   16.8140 H   0  0  0  0  0  0  0  0  0  0  0  0
    2.2890    3.3070   16.0070 H   0  0  0  0  0  0  0  0  0  0  0  0
    1.1380    4.8070   17.6270 H   0  0  0  0  0  0  0  0  0  0  0  0
  1  6  1  0  0  0  0
  2  1  2  0  0  0  0
  2  3  1  0  0  0  0
  3  4  2  0  0  0  0
  4  5  1  0  0  0  0
  4 29  1  0  0  0  0
  5 24  1  0  0  0  0
  6  9  1  0  0  0  0
  6  5  2  0  0  0  0
  7  2  1  0  0  0  0
  8  3  1  0  0  0  0
 10 20  1  0  0  0  0
 11 17  1  0  0  0  0
 11 10  2  0  0  0  0
 12 11  1  0  0  0  0
 13 12  2  0  0  0  0
 13 15  1  0  0  0  0
 14 13  1  0  0  0  0
 15 16  2  0  0  0  0
 16 10  1  0  0  0  0
 16  1  1  0  0  0  0
 18 12  1  0  0  0  0
 19 15  1  0  0  0  0
 20 23  1  0  0  0  0
 20 21  1  0  0  0  0
 22 20  1  0  0  0  0
 24 26  2  0  0  0  0
 24 25  1  0  0  0  0
 25 27  1  0  0  0  0
 28 25  1  0  0  0  0
 29 30  1  0  0  0  0
 31 29  1  0  0  0  0
 32 29  1  0  0  0  0
 33 34  2  0  0  0  0
 33 32  1  0  0  0  0
 35 37  1  0  0  0  0
 35 33  1  0  0  0  0
 36 32  1  0  0  0  0
 38 47  1  6  0  0  0
 38 35  1  0  0  0  0
 38 39  1  0  0  0  0
 39 49  1  0  0  0  0
 39 48  1  0  0  0  0
 40 50  1  0  0  0  0
 40 39  1  0  0  0  0
 40 51  1  0  0  0  0
 41 40  1  0  0  0  0
 42 52  1  0  0  0  0
 42 41  2  0  0  0  0
 43 42  1  0  0  0  0
 44 43  2  0  0  0  0
 44 45  1  0  0  0  0
 45 46  2  0  0  0  0
 46 41  1  0  0  0  0
 46 38  1  0  0  0  0
 53 43  1  0  0  0  0
 54 44  1  0  0  0  0
 55 45  1  0  0  0  0
M  END
>  <MODEL>
28

>  <REMARK>
 VINA RESULT:    -7.948      4.149      5.386
 INTER + INTRA:         -10.127
 INTER:                 -10.578
 INTRA:                   0.451
 UNBOUND:                 0.377
  Name = 
  6 active torsions:
  status: ('A' for Active; 'I' for Inactive)
    1  A    between atoms: C_1  and  C_2
    2  A    between atoms: C_8  and  C_9
    3  A    between atoms: C_12  and  C_13
    4  A    between atoms: C_13  and  N_14
    5  A    between atoms: N_17  and  C_18
    6  A    between atoms: C_27  and  C_28
                            x       y       z     vdW  Elec       q    Type
                         _______ _______ _______ _____ _____    ______ ____

>  <TORSDO>
F 6

$$$$
=
 OpenBabel07192307433D

 55 58  0  0  1  0  0  0  0  0999 V2000
    2.3070    5.8070   19.3100 C   0  0  0  0  0  0  0  0  0  0  0  0
    2.2420    5.9630   20.7000 C   0  0  0  0  0  0  0  0  0  0  0  0
    1.9060    7.1960   21.2720 C   0  0  0  0  0  0  0  0  0  0  0  0
    1.6150    8.3130   20.4700 C   0  0  0  0  0  0  0  0  0  0  0  0
    1.7410    8.1690   19.0760 C   0  0  0  0  0  0  0  0  0  0  0  0
    2.0580    6.9270   18.5050 C   0  0  0  0  0  0  0  0  0  0  0  0
    2.4440    5.1150   21.3540 H   0  0  0  0  0  0  0  0  0  0  0  0
    1.8630    7.2720   22.3570 H   0  0  0  0  0  0  0  0  0  0  0  0
    2.1240    6.8380   17.4220 H   0  0  0  0  0  0  0  0  0  0  0  0
    1.9270    3.3240   19.0010 C   0  0  0  0  0  0  0  0  0  0  0  0
    2.2940    2.1160   18.3800 C   0  0  0  0  0  0  0  0  0  0  0  0
    3.3740    2.0670   17.5010 C   0  0  0  0  0  0  0  0  0  0  0  0
    4.0870    3.2250   17.2340 C   0  0  0  0  0  0  0  0  0  0  0  0
    5.1260    3.1800   16.3900 F   0  0  0  0  0  0  0  0  0  0  0  0
    3.7380    4.4330   17.8260 C   0  0  0  0  0  0  0  0  0  0  0  0
    2.6500    4.5070   18.7140 C   0  0  0  0  0  0  0  0  0  0  0  0
    1.7370    1.2030   18.5840 H   0  0  0  0  0  0  0  0  0  0  0  0
    3.6610    1.1350   17.0240 H   0  0  0  0  0  0  0  0  0  0  0  0
    4.3170    5.3190   17.5810 H   0  0  0  0  0  0  0  0  0  0  0  0
    0.7490    3.3240   19.9410 C   0  0  0  0  0  0  0  0  0  0  0  0
    1.0220    2.9140   20.9200 H   0  0  0  0  0  0  0  0  0  0  0  0
   -0.0610    2.7100   19.5330 H   0  0  0  0  0  0  0  0  0  0  0  0
    0.3860    4.3420   20.1140 H   0  0  0  0  0  0  0  0  0  0  0  0
    1.5480    9.2920   18.1310 C   0  0  0  0  0  0  0  0  0  0  0  0
    2.6720    9.9840   17.7820 N   0  0  0  0  0  0  0  0  0  0  0  0
    0.4510    9.5430   17.6520 O   0  0  0  0  0  0  0  0  0  0  0  0
    2.5730   10.6670   17.0410 H   0  0  0  0  0  0  0  0  0  0  0  0
    3.6020    9.6390   17.9800 H   0  0  0  0  0  0  0  0  0  0  0  0
    1.2130    9.6210   21.1100 C   0  0  0  0  0  0  0  0  0  0  0  0
    1.7430   10.4680   20.6630 H   0  0  0  0  0  0  0  0  0  0  0  0
    1.4470    9.5900   22.1800 H   0  0  0  0  0  0  0  0  0  0  0  0
   -0.1960    9.9100   20.9330 N   0  0  0  0  0  0  0  0  0  0  0  0
   -0.5620   11.0140   20.2070 C   0  0  0  0  0  0  0  0  0  0  0  0
    0.2220   11.8460   19.7760 O   0  0  0  0  0  0  0  0  0  0  0  0
   -1.9180   11.0640   20.0340 N   0  0  0  0  0  0  0  0  0  0  0  0
   -0.7900    9.1090   20.7760 H   0  0  0  0  0  0  0  0  0  0  0  0
   -2.4740   10.5840   20.7250 H   0  0  0  0  0  0  0  0  0  0  0  0
   -2.5340   12.1870   19.3630 C   0  0  2  0  0  0  0  0  0  0  0  0
   -3.8670   12.6190   20.0110 C   0  0  0  0  0  0  0  0  0  0  0  0
   -4.9760   11.8010   19.3320 C   0  0  0  0  0  0  0  0  0  0  0  0
   -4.3850   11.5680   17.9770 C   0  0  0  0  0  0  0  0  0  0  0  0
   -5.0300   11.1490   16.8270 C   0  0  0  0  0  0  0  0  0  0  0  0
   -4.2680   10.9590   15.6730 C   0  0  0  0  0  0  0  0  0  0  0  0
   -2.8800   11.1780   15.6850 C   0  0  0  0  0  0  0  0  0  0  0  0
   -2.2370   11.5890   16.8540 C   0  0  0  0  0  0  0  0  0  0  0  0
   -3.0020   11.7850   17.9930 C   0  0  0  0  0  0  0  0  0  0  0  0
   -1.8330   13.0290   19.3290 H   0  0  0  0  0  0  0  0  0  0  0  0
   -3.8860   12.5100   21.1000 H   0  0  0  0  0  0  0  0  0  0  0  0
   -4.0370   13.6830   19.7910 H   0  0  0  0  0  0  0  0  0  0  0  0
   -5.1320   10.8450   19.8440 H   0  0  0  0  0  0  0  0  0  0  0  0
   -5.9140   12.3620   19.2890 H   0  0  0  0  0  0  0  0  0  0  0  0
   -6.1010   10.9720   16.8160 H   0  0  0  0  0  0  0  0  0  0  0  0
   -4.7510   10.6360   14.7530 H   0  0  0  0  0  0  0  0  0  0  0  0
   -2.3040   11.0210   14.7770 H   0  0  0  0  0  0  0  0  0  0  0  0
   -1.1630   11.7480   16.8670 H   0  0  0  0  0  0  0  0  0  0  0  0
  1  2  1  0  0  0  0
  2  3  2  0  0  0  0
  2  7  1  0  0  0  0
  3  8  1  0  0  0  0
  4 29  1  0  0  0  0
  4  3  1  0  0  0  0
  5  4  2  0  0  0  0
  6  5  1  0  0  0  0
  6  1  2  0  0  0  0
  9  6  1  0  0  0  0
 10 20  1  0  0  0  0
 11 17  1  0  0  0  0
 11 10  2  0  0  0  0
 12 11  1  0  0  0  0
 13 12  2  0  0  0  0
 13 15  1  0  0  0  0
 14 13  1  0  0  0  0
 15 16  2  0  0  0  0
 16 10  1  0  0  0  0
 16  1  1  0  0  0  0
 18 12  1  0  0  0  0
 19 15  1  0  0  0  0
 20 23  1  0  0  0  0
 20 21  1  0  0  0  0
 22 20  1  0  0  0  0
 24  5  1  0  0  0  0
 25 28  1  0  0  0  0
 25 24  1  0  0  0  0
 26 24  2  0  0  0  0
 27 25  1  0  0  0  0
 29 31  1  0  0  0  0
 30 29  1  0  0  0  0
 32 29  1  0  0  0  0
 33 32  1  0  0  0  0
 34 33  2  0  0  0  0
 35 33  1  0  0  0  0
 35 37  1  0  0  0  0
 36 32  1  0  0  0  0
 38 47  1  6  0  0  0
 38 39  1  0  0  0  0
 38 35  1  0  0  0  0
 39 48  1  0  0  0  0
 40 50  1  0  0  0  0
 40 39  1  0  0  0  0
 41 46  1  0  0  0  0
 41 40  1  0  0  0  0
 42 41  2  0  0  0  0
 43 44  2  0  0  0  0
 43 42  1  0  0  0  0
 44 45  1  0  0  0  0
 45 55  1  0  0  0  0
 45 46  2  0  0  0  0
 46 38  1  0  0  0  0
 49 39  1  0  0  0  0
 51 40  1  0  0  0  0
 52 42  1  0  0  0  0
 53 43  1  0  0  0  0
 54 44  1  0  0  0  0
M  END
>  <MODEL>
29

>  <REMARK>
 VINA RESULT:    -7.918      4.093      9.669
 INTER + INTRA:         -10.088
 INTER:                  -9.358
 INTRA:                  -0.729
 UNBOUND:                 0.377
  Name = 
  6 active torsions:
  status: ('A' for Active; 'I' for Inactive)
    1  A    between atoms: C_1  and  C_2
    2  A    between atoms: C_8  and  C_9
    3  A    between atoms: C_12  and  C_13
    4  A    between atoms: C_13  and  N_14
    5  A    between atoms: N_17  and  C_18
    6  A    between atoms: C_27  and  C_28
                            x       y       z     vdW  Elec       q    Type
                         _______ _______ _______ _____ _____    ______ ____

>  <TORSDO>
F 6

$$$$
=
 OpenBabel07192307433D

 55 58  0  0  1  0  0  0  0  0999 V2000
   -1.8910   12.7300   21.7170 C   0  0  0  0  0  0  0  0  0  0  0  0
   -1.4200   13.2360   20.4990 C   0  0  0  0  0  0  0  0  0  0  0  0
   -0.5090   12.5120   19.7210 C   0  0  0  0  0  0  0  0  0  0  0  0
   -0.0430   11.2510   20.1330 C   0  0  0  0  0  0  0  0  0  0  0  0
   -0.4710   10.7720   21.3860 C   0  0  0  0  0  0  0  0  0  0  0  0
   -1.4000   11.4920   22.1530 C   0  0  0  0  0  0  0  0  0  0  0  0
   -1.7710   14.2020   20.1380 H   0  0  0  0  0  0  0  0  0  0  0  0
   -0.1720   12.9400   18.7790 H   0  0  0  0  0  0  0  0  0  0  0  0
   -1.7330   11.0850   23.1080 H   0  0  0  0  0  0  0  0  0  0  0  0
   -4.1970   13.6910   22.1170 C   0  0  0  0  0  0  0  0  0  0  0  0
   -5.0760   14.4100   22.9470 C   0  0  0  0  0  0  0  0  0  0  0  0
   -4.6370   14.9430   24.1570 C   0  0  0  0  0  0  0  0  0  0  0  0
   -3.3200   14.7550   24.5450 C   0  0  0  0  0  0  0  0  0  0  0  0
   -2.8940   15.2660   25.7080 F   0  0  0  0  0  0  0  0  0  0  0  0
   -2.4340   14.0380   23.7480 C   0  0  0  0  0  0  0  0  0  0  0  0
   -2.8560   13.4890   22.5240 C   0  0  0  0  0  0  0  0  0  0  0  0
   -6.1130   14.5610   22.6500 H   0  0  0  0  0  0  0  0  0  0  0  0
   -5.3120   15.5010   24.7970 H   0  0  0  0  0  0  0  0  0  0  0  0
   -1.4130   13.9050   24.0960 H   0  0  0  0  0  0  0  0  0  0  0  0
   -4.7230   13.1330   20.8200 C   0  0  0  0  0  0  0  0  0  0  0  0
   -5.3430   13.8680   20.2940 H   0  0  0  0  0  0  0  0  0  0  0  0
   -5.3400   12.2490   21.0110 H   0  0  0  0  0  0  0  0  0  0  0  0
   -3.9020   12.8690   20.1450 H   0  0  0  0  0  0  0  0  0  0  0  0
    0.0150    9.5020   21.9700 C   0  0  0  0  0  0  0  0  0  0  0  0
    1.1570    9.5800   22.7140 N   0  0  0  0  0  0  0  0  0  0  0  0
   -0.6070    8.4580   21.8370 O   0  0  0  0  0  0  0  0  0  0  0  0
    1.4260    8.7470   23.2220 H   0  0  0  0  0  0  0  0  0  0  0  0
    1.5390   10.4630   23.0260 H   0  0  0  0  0  0  0  0  0  0  0  0
    0.9060   10.4690   19.2560 C   0  0  0  0  0  0  0  0  0  0  0  0
    1.9450   10.7800   19.4100 H   0  0  0  0  0  0  0  0  0  0  0  0
    0.6470   10.6310   18.2040 H   0  0  0  0  0  0  0  0  0  0  0  0
    0.8800    9.0490   19.5460 N   0  0  0  0  0  0  0  0  0  0  0  0
    1.9220    8.2650   19.1200 C   0  0  0  0  0  0  0  0  0  0  0  0
    2.8370    8.6600   18.4130 O   0  0  0  0  0  0  0  0  0  0  0  0
    1.7980    6.9850   19.5850 N   0  0  0  0  0  0  0  0  0  0  0  0
    0.5310    8.7960   20.4580 H   0  0  0  0  0  0  0  0  0  0  0  0
    0.8630    6.6790   19.8060 H   0  0  0  0  0  0  0  0  0  0  0  0
    2.7450    5.9650   19.1940 C   0  0  2  0  0  0  0  0  0  0  0  0
    2.6270    5.5710   17.7060 C   0  0  0  0  0  0  0  0  0  0  0  0
    1.6000    4.4320   17.6280 C   0  0  0  0  0  0  0  0  0  0  0  0
    1.7660    3.7920   18.9710 C   0  0  0  0  0  0  0  0  0  0  0  0
    1.3290    2.5440   19.3810 C   0  0  0  0  0  0  0  0  0  0  0  0
    1.5630    2.1640   20.7040 C   0  0  0  0  0  0  0  0  0  0  0  0
    2.2140    3.0310   21.5960 C   0  0  0  0  0  0  0  0  0  0  0  0
    2.6400    4.2930   21.1760 C   0  0  0  0  0  0  0  0  0  0  0  0
    2.4130    4.6600   19.8590 C   0  0  0  0  0  0  0  0  0  0  0  0
    3.7640    6.2980   19.4220 H   0  0  0  0  0  0  0  0  0  0  0  0
    2.3630    6.4050   17.0460 H   0  0  0  0  0  0  0  0  0  0  0  0
    3.5990    5.1860   17.3640 H   0  0  0  0  0  0  0  0  0  0  0  0
    0.5820    4.8230   17.5210 H   0  0  0  0  0  0  0  0  0  0  0  0
    1.8270    3.7460   16.8070 H   0  0  0  0  0  0  0  0  0  0  0  0
    0.8190    1.8750   18.6960 H   0  0  0  0  0  0  0  0  0  0  0  0
    1.2340    1.1860   21.0500 H   0  0  0  0  0  0  0  0  0  0  0  0
    2.3830    2.7170   22.6230 H   0  0  0  0  0  0  0  0  0  0  0  0
    3.1330    4.9690   21.8680 H   0  0  0  0  0  0  0  0  0  0  0  0
  1  6  1  0  0  0  0
  1 16  1  0  0  0  0
  2  1  2  0  0  0  0
  3  4  2  0  0  0  0
  3  2  1  0  0  0  0
  4  5  1  0  0  0  0
  5 24  1  0  0  0  0
  5  6  2  0  0  0  0
  6  9  1  0  0  0  0
  7  2  1  0  0  0  0
  8  3  1  0  0  0  0
 10 16  2  0  0  0  0
 10 11  1  0  0  0  0
 11 12  2  0  0  0  0
 12 13  1  0  0  0  0
 12 18  1  0  0  0  0
 13 14  1  0  0  0  0
 15 19  1  0  0  0  0
 15 13  2  0  0  0  0
 16 15  1  0  0  0  0
 17 11  1  0  0  0  0
 20 22  1  0  0  0  0
 20 10  1  0  0  0  0
 21 20  1  0  0  0  0
 23 20  1  0  0  0  0
 24 25  1  0  0  0  0
 25 28  1  0  0  0  0
 25 27  1  0  0  0  0
 26 24  2  0  0  0  0
 29 30  1  0  0  0  0
 29 32  1  0  0  0  0
 29  4  1  0  0  0  0
 31 29  1  0  0  0  0
 32 36  1  0  0  0  0
 33 32  1  0  0  0  0
 33 35  1  0  0  0  0
 34 33  2  0  0  0  0
 35 37  1  0  0  0  0
 38 47  1  1  0  0  0
 38 35  1  0  0  0  0
 38 46  1  0  0  0  0
 39 38  1  0  0  0  0
 40 39  1  0  0  0  0
 40 41  1  0  0  0  0
 41 42  2  0  0  0  0
 41 46  1  0  0  0  0
 42 43  1  0  0  0  0
 43 53  1  0  0  0  0
 43 44  2  0  0  0  0
 44 54  1  0  0  0  0
 45 44  1  0  0  0  0
 45 55  1  0  0  0  0
 46 45  2  0  0  0  0
 48 39  1  0  0  0  0
 49 39  1  0  0  0  0
 50 40  1  0  0  0  0
 51 40  1  0  0  0  0
 52 42  1  0  0  0  0
M  END
>  <MODEL>
30

>  <REMARK>
 VINA RESULT:    -7.621      2.492      3.691
 INTER + INTRA:          -9.695
 INTER:                  -9.670
 INTRA:                  -0.024
 UNBOUND:                 0.377
  Name = 
  6 active torsions:
  status: ('A' for Active; 'I' for Inactive)
    1  A    between atoms: C_1  and  C_2
    2  A    between atoms: C_8  and  C_9
    3  A    between atoms: C_12  and  C_13
    4  A    between atoms: C_13  and  N_14
    5  A    between atoms: N_17  and  C_18
    6  A    between atoms: C_27  and  C_28
                            x       y       z     vdW  Elec       q    Type
                         _______ _______ _______ _____ _____    ______ ____

>  <TORSDO>
F 6

$$$$
=
 OpenBabel07192307433D

 55 58  0  0  1  0  0  0  0  0999 V2000
   -1.3470   10.1920   18.6580 C   0  0  0  0  0  0  0  0  0  0  0  0
   -0.3940    9.8540   17.6890 C   0  0  0  0  0  0  0  0  0  0  0  0
    0.7880    9.1920   18.0400 C   0  0  0  0  0  0  0  0  0  0  0  0
    1.0530    8.8380   19.3740 C   0  0  0  0  0  0  0  0  0  0  0  0
    0.1230    9.2320   20.3530 C   0  0  0  0  0  0  0  0  0  0  0  0
   -1.0710    9.8780   19.9960 C   0  0  0  0  0  0  0  0  0  0  0  0
   -0.5730   10.0970   16.6420 H   0  0  0  0  0  0  0  0  0  0  0  0
    1.5000    8.9450   17.2540 H   0  0  0  0  0  0  0  0  0  0  0  0
   -1.7850   10.1490   20.7730 H   0  0  0  0  0  0  0  0  0  0  0  0
   -3.2280   10.6700   17.0350 C   0  0  0  0  0  0  0  0  0  0  0  0
   -4.4300   11.3420   16.7470 C   0  0  0  0  0  0  0  0  0  0  0  0
   -4.9910   12.2250   17.6670 C   0  0  0  0  0  0  0  0  0  0  0  0
   -4.3570   12.4350   18.8810 C   0  0  0  0  0  0  0  0  0  0  0  0
   -4.8940   13.2840   19.7680 F   0  0  0  0  0  0  0  0  0  0  0  0
   -3.1750   11.7750   19.1950 C   0  0  0  0  0  0  0  0  0  0  0  0
   -2.5920   10.8780   18.2830 C   0  0  0  0  0  0  0  0  0  0  0  0
   -4.9350   11.1820   15.7950 H   0  0  0  0  0  0  0  0  0  0  0  0
   -5.9160   12.7480   17.4450 H   0  0  0  0  0  0  0  0  0  0  0  0
   -2.7170   11.9610   20.1630 H   0  0  0  0  0  0  0  0  0  0  0  0
   -2.6660    9.7230   16.0060 C   0  0  0  0  0  0  0  0  0  0  0  0
   -1.9660    9.0130   16.4610 H   0  0  0  0  0  0  0  0  0  0  0  0
   -2.1260   10.2810   15.2340 H   0  0  0  0  0  0  0  0  0  0  0  0
   -3.4620    9.1320   15.5430 H   0  0  0  0  0  0  0  0  0  0  0  0
    0.3300    8.9960   21.8000 C   0  0  0  0  0  0  0  0  0  0  0  0
   -0.7080    8.4140   22.4700 N   0  0  0  0  0  0  0  0  0  0  0  0
    1.3930    9.2590   22.3450 O   0  0  0  0  0  0  0  0  0  0  0  0
   -0.5300    8.1310   23.4260 H   0  0  0  0  0  0  0  0  0  0  0  0
   -1.4840    7.9790   21.9900 H   0  0  0  0  0  0  0  0  0  0  0  0
    2.3160    8.0850   19.7220 C   0  0  0  0  0  0  0  0  0  0  0  0
    2.1120    7.2450   20.3940 H   0  0  0  0  0  0  0  0  0  0  0  0
    3.0190    8.7640   20.2170 H   0  0  0  0  0  0  0  0  0  0  0  0
    2.9490    7.5030   18.5560 N   0  0  0  0  0  0  0  0  0  0  0  0
    3.6180    6.3130   18.6870 C   0  0  0  0  0  0  0  0  0  0  0  0
    3.8150    5.7470   19.7520 O   0  0  0  0  0  0  0  0  0  0  0  0
    4.0420    5.8480   17.4730 N   0  0  0  0  0  0  0  0  0  0  0  0
    2.4300    7.5800   17.6930 H   0  0  0  0  0  0  0  0  0  0  0  0
    4.1760    6.5400   16.7520 H   0  0  0  0  0  0  0  0  0  0  0  0
    4.8390    4.6450   17.3830 C   0  0  2  0  0  0  0  0  0  0  0  0
    6.1060    4.6940   18.2640 C   0  0  0  0  0  0  0  0  0  0  0  0
    7.2190    5.3140   17.4070 C   0  0  0  0  0  0  0  0  0  0  0  0
    6.7980    4.9010   16.0310 C   0  0  0  0  0  0  0  0  0  0  0  0
    7.5520    4.9080   14.8710 C   0  0  0  0  0  0  0  0  0  0  0  0
    6.9380    4.5130   13.6810 C   0  0  0  0  0  0  0  0  0  0  0  0
    5.5870    4.1310   13.6620 C   0  0  0  0  0  0  0  0  0  0  0  0
    4.8310    4.1400   14.8360 C   0  0  0  0  0  0  0  0  0  0  0  0
    5.4500    4.5230   16.0160 C   0  0  0  0  0  0  0  0  0  0  0  0
    4.2260    3.7740   17.6400 H   0  0  0  0  0  0  0  0  0  0  0  0
    5.9680    5.2330   19.2080 H   0  0  0  0  0  0  0  0  0  0  0  0
    6.3970    3.6650   18.5200 H   0  0  0  0  0  0  0  0  0  0  0  0
    7.2200    6.4070   17.4880 H   0  0  0  0  0  0  0  0  0  0  0  0
    8.2000    4.9160   17.6810 H   0  0  0  0  0  0  0  0  0  0  0  0
    8.5940    5.2090   14.8800 H   0  0  0  0  0  0  0  0  0  0  0  0
    7.5100    4.5040   12.7550 H   0  0  0  0  0  0  0  0  0  0  0  0
    5.1260    3.8310   12.7250 H   0  0  0  0  0  0  0  0  0  0  0  0
    3.7830    3.8560   14.8220 H   0  0  0  0  0  0  0  0  0  0  0  0
  1  6  1  0  0  0  0
  2  3  1  0  0  0  0
  2  1  2  0  0  0  0
  3  4  2  0  0  0  0
  4 29  1  0  0  0  0
  4  5  1  0  0  0  0
  5 24  1  0  0  0  0
  6  5  2  0  0  0  0
  6  9  1  0  0  0  0
  7  2  1  0  0  0  0
  8  3  1  0  0  0  0
 10 16  1  0  0  0  0
 11 10  2  0  0  0  0
 11 12  1  0  0  0  0
 12 13  2  0  0  0  0
 13 15  1  0  0  0  0
 13 14  1  0  0  0  0
 15 19  1  0  0  0  0
 16  1  1  0  0  0  0
 16 15  2  0  0  0  0
 17 11  1  0  0  0  0
 18 12  1  0  0  0  0
 20 21  1  0  0  0  0
 20 10  1  0  0  0  0
 22 20  1  0  0  0  0
 23 20  1  0  0  0  0
 24 26  2  0  0  0  0
 24 25  1  0  0  0  0
 25 27  1  0  0  0  0
 28 25  1  0  0  0  0
 29 31  1  0  0  0  0
 29 30  1  0  0  0  0
 32 33  1  0  0  0  0
 32 29  1  0  0  0  0
 33 34  2  0  0  0  0
 35 33  1  0  0  0  0
 36 32  1  0  0  0  0
 37 35  1  0  0  0  0
 38 35  1  0  0  0  0
 38 47  1  1  0  0  0
 38 39  1  0  0  0  0
 39 49  1  0  0  0  0
 39 48  1  0  0  0  0
 40 50  1  0  0  0  0
 40 51  1  0  0  0  0
 40 39  1  0  0  0  0
 41 40  1  0  0  0  0
 42 52  1  0  0  0  0
 42 41  2  0  0  0  0
 43 42  1  0  0  0  0
 44 43  2  0  0  0  0
 44 45  1  0  0  0  0
 45 46  2  0  0  0  0
 46 41  1  0  0  0  0
 46 38  1  0  0  0  0
 53 43  1  0  0  0  0
 54 44  1  0  0  0  0
 55 45  1  0  0  0  0
M  END
>  <MODEL>
31

>  <REMARK>
 VINA RESULT:    -7.462      3.471      4.717
 INTER + INTRA:          -9.485
 INTER:                  -9.862
 INTRA:                   0.377
 UNBOUND:                 0.377
  Name = 
  6 active torsions:
  status: ('A' for Active; 'I' for Inactive)
    1  A    between atoms: C_1  and  C_2
    2  A    between atoms: C_8  and  C_9
    3  A    between atoms: C_12  and  C_13
    4  A    between atoms: C_13  and  N_14
    5  A    between atoms: N_17  and  C_18
    6  A    between atoms: C_27  and  C_28
                            x       y       z     vdW  Elec       q    Type
                         _______ _______ _______ _____ _____    ______ ____

>  <TORSDO>
F 6

$$$$
=
 OpenBabel07192307433D

 55 58  0  0  1  0  0  0  0  0999 V2000
    4.3910    5.9040   17.5210 C   0  0  0  0  0  0  0  0  0  0  0  0
    4.3300    5.2520   18.7590 C   0  0  0  0  0  0  0  0  0  0  0  0
    3.4370    5.6730   19.7520 C   0  0  0  0  0  0  0  0  0  0  0  0
    2.5690    6.7570   19.5370 C   0  0  0  0  0  0  0  0  0  0  0  0
    2.6760    7.4480   18.3150 C   0  0  0  0  0  0  0  0  0  0  0  0
    3.5580    7.0120   17.3140 C   0  0  0  0  0  0  0  0  0  0  0  0
    4.9750    4.3970   18.9560 H   0  0  0  0  0  0  0  0  0  0  0  0
    3.4190    5.1350   20.6980 H   0  0  0  0  0  0  0  0  0  0  0  0
    3.6010    7.5510   16.3690 H   0  0  0  0  0  0  0  0  0  0  0  0
    6.7180    5.6800   16.5530 C   0  0  0  0  0  0  0  0  0  0  0  0
    7.5580    5.2010   15.5310 C   0  0  0  0  0  0  0  0  0  0  0  0
    7.0290    4.5230   14.4340 C   0  0  0  0  0  0  0  0  0  0  0  0
    5.6610    4.3160   14.3580 C   0  0  0  0  0  0  0  0  0  0  0  0
    5.1500    3.6640   13.3050 F   0  0  0  0  0  0  0  0  0  0  0  0
    4.8110    4.7680   15.3610 C   0  0  0  0  0  0  0  0  0  0  0  0
    5.3230    5.4520   16.4780 C   0  0  0  0  0  0  0  0  0  0  0  0
    8.6340    5.3600   15.5840 H   0  0  0  0  0  0  0  0  0  0  0  0
    7.6750    4.1570   13.6420 H   0  0  0  0  0  0  0  0  0  0  0  0
    3.7460    4.5740   15.2660 H   0  0  0  0  0  0  0  0  0  0  0  0
    7.3410    6.4040   17.7190 C   0  0  0  0  0  0  0  0  0  0  0  0
    7.2870    7.4900   17.5870 H   0  0  0  0  0  0  0  0  0  0  0  0
    8.3960    6.1280   17.8150 H   0  0  0  0  0  0  0  0  0  0  0  0
    6.8140    6.1710   18.6510 H   0  0  0  0  0  0  0  0  0  0  0  0
    1.8810    8.6570   18.0040 C   0  0  0  0  0  0  0  0  0  0  0  0
    2.5330    9.8520   18.1150 N   0  0  0  0  0  0  0  0  0  0  0  0
    0.7240    8.5790   17.6150 O   0  0  0  0  0  0  0  0  0  0  0  0
    2.0410   10.6710   17.7810 H   0  0  0  0  0  0  0  0  0  0  0  0
    3.5390    9.9110   18.1990 H   0  0  0  0  0  0  0  0  0  0  0  0
    1.5850    7.1650   20.6070 C   0  0  0  0  0  0  0  0  0  0  0  0
    2.0850    7.3580   21.5620 H   0  0  0  0  0  0  0  0  0  0  0  0
    0.8540    6.3620   20.7540 H   0  0  0  0  0  0  0  0  0  0  0  0
    0.8920    8.3940   20.2780 N   0  0  0  0  0  0  0  0  0  0  0  0
    0.8330    9.3950   21.2130 C   0  0  0  0  0  0  0  0  0  0  0  0
    1.2380    9.2900   22.3620 O   0  0  0  0  0  0  0  0  0  0  0  0
    0.2570   10.5220   20.6950 N   0  0  0  0  0  0  0  0  0  0  0  0
    1.0220    8.7300   19.3350 H   0  0  0  0  0  0  0  0  0  0  0  0
   -0.3700   10.3860   19.9170 H   0  0  0  0  0  0  0  0  0  0  0  0
    0.0210   11.6790   21.5300 C   0  0  2  0  0  0  0  0  0  0  0  0
   -1.4790   11.9660   21.7540 C   0  0  0  0  0  0  0  0  0  0  0  0
   -1.9300   12.8880   20.6110 C   0  0  0  0  0  0  0  0  0  0  0  0
   -0.6600   13.6160   20.3010 C   0  0  0  0  0  0  0  0  0  0  0  0
   -0.5020   14.7800   19.5680 C   0  0  0  0  0  0  0  0  0  0  0  0
    0.7920   15.2660   19.3700 C   0  0  0  0  0  0  0  0  0  0  0  0
    1.9030   14.5830   19.8910 C   0  0  0  0  0  0  0  0  0  0  0  0
    1.7340   13.4030   20.6180 C   0  0  0  0  0  0  0  0  0  0  0  0
    0.4460   12.9320   20.8190 C   0  0  0  0  0  0  0  0  0  0  0  0
    0.5350   11.5540   22.4900 H   0  0  0  0  0  0  0  0  0  0  0  0
   -2.0980   11.0640   21.8200 H   0  0  0  0  0  0  0  0  0  0  0  0
   -1.5970   12.5070   22.7040 H   0  0  0  0  0  0  0  0  0  0  0  0
   -2.2550   12.3090   19.7400 H   0  0  0  0  0  0  0  0  0  0  0  0
   -2.7300   13.5600   20.9350 H   0  0  0  0  0  0  0  0  0  0  0  0
   -1.3580   15.3060   19.1590 H   0  0  0  0  0  0  0  0  0  0  0  0
    0.9430   16.1820   18.8030 H   0  0  0  0  0  0  0  0  0  0  0  0
    2.9020   14.9760   19.7220 H   0  0  0  0  0  0  0  0  0  0  0  0
    2.5930   12.8690   21.0110 H   0  0  0  0  0  0  0  0  0  0  0  0
  1  2  1  0  0  0  0
  2  7  1  0  0  0  0
  2  3  2  0  0  0  0
  3  8  1  0  0  0  0
  4  3  1  0  0  0  0
  4 29  1  0  0  0  0
  5  4  2  0  0  0  0
  6  1  2  0  0  0  0
  6  5  1  0  0  0  0
  9  6  1  0  0  0  0
 10 20  1  0  0  0  0
 11 17  1  0  0  0  0
 11 10  2  0  0  0  0
 12 11  1  0  0  0  0
 13 12  2  0  0  0  0
 13 15  1  0  0  0  0
 14 13  1  0  0  0  0
 15 16  2  0  0  0  0
 16 10  1  0  0  0  0
 16  1  1  0  0  0  0
 18 12  1  0  0  0  0
 19 15  1  0  0  0  0
 20 22  1  0  0  0  0
 20 23  1  0  0  0  0
 21 20  1  0  0  0  0
 24 25  1  0  0  0  0
 24  5  1  0  0  0  0
 25 28  1  0  0  0  0
 26 24  2  0  0  0  0
 27 25  1  0  0  0  0
 29 31  1  0  0  0  0
 29 30  1  0  0  0  0
 32 29  1  0  0  0  0
 32 33  1  0  0  0  0
 33 34  2  0  0  0  0
 35 33  1  0  0  0  0
 35 38  1  0  0  0  0
 36 32  1  0  0  0  0
 37 35  1  0  0  0  0
 38 39  1  0  0  0  0
 38 47  1  1  0  0  0
 39 48  1  0  0  0  0
 39 49  1  0  0  0  0
 40 51  1  0  0  0  0
 40 39  1  0  0  0  0
 41 40  1  0  0  0  0
 41 46  1  0  0  0  0
 42 41  2  0  0  0  0
 43 42  1  0  0  0  0
 43 44  2  0  0  0  0
 44 45  1  0  0  0  0
 45 46  2  0  0  0  0
 45 55  1  0  0  0  0
 46 38  1  0  0  0  0
 50 40  1  0  0  0  0
 52 42  1  0  0  0  0
 53 43  1  0  0  0  0
 54 44  1  0  0  0  0
M  END
>  <MODEL>
32

>  <REMARK>
 VINA RESULT:    -7.382      3.952     10.056
 INTER + INTRA:          -9.379
 INTER:                  -9.691
 INTRA:                   0.312
 UNBOUND:                 0.377
  Name = 
  6 active torsions:
  status: ('A' for Active; 'I' for Inactive)
    1  A    between atoms: C_1  and  C_2
    2  A    between atoms: C_8  and  C_9
    3  A    between atoms: C_12  and  C_13
    4  A    between atoms: C_13  and  N_14
    5  A    between atoms: N_17  and  C_18
    6  A    between atoms: C_27  and  C_28
                            x       y       z     vdW  Elec       q    Type
                         _______ _______ _______ _____ _____    ______ ____

>  <TORSDO>
F 6

$$$$
