=
 OpenBabel07192307433D

 61 65  0  0  0  0  0  0  0  0999 V2000
   -1.4110   12.1160   20.0390 N   0  0  0  0  0  0  0  0  0  0  0  0
   -0.8700   10.9690   20.8070 C   0  0  0  0  0  0  0  0  0  0  0  0
    0.2810   10.3010   20.0230 C   0  0  0  0  0  0  0  0  0  0  0  0
   -0.1430    9.7100   18.7270 N   0  0  0  0  0  0  0  0  0  0  0  0
   -1.3110   10.4340   18.1710 C   0  0  0  0  0  0  0  0  0  0  0  0
   -1.4260   11.9220   18.5710 C   0  0  0  0  0  0  0  0  0  0  0  0
   -1.6490   10.2220   21.0130 H   0  0  0  0  0  0  0  0  0  0  0  0
   -0.4870   11.3230   21.7720 H   0  0  0  0  0  0  0  0  0  0  0  0
    1.0600   11.0590   19.8650 H   0  0  0  0  0  0  0  0  0  0  0  0
    0.7150    9.5110   20.6460 H   0  0  0  0  0  0  0  0  0  0  0  0
   -2.2040    9.9090   18.5330 H   0  0  0  0  0  0  0  0  0  0  0  0
   -1.3510   10.3460   17.0780 H   0  0  0  0  0  0  0  0  0  0  0  0
   -0.5670   12.4660   18.1600 H   0  0  0  0  0  0  0  0  0  0  0  0
   -2.3150   12.3650   18.1050 H   0  0  0  0  0  0  0  0  0  0  0  0
   -2.6220   14.5190   24.3480 C   0  0  0  0  0  0  0  0  0  0  0  0
   -1.3990   14.1130   23.8390 C   0  0  0  0  0  0  0  0  0  0  0  0
   -1.3760   13.4760   22.6030 C   0  0  0  0  0  0  0  0  0  0  0  0
   -2.5660   13.2510   21.8880 C   0  0  0  0  0  0  0  0  0  0  0  0
   -2.6040   12.6070   20.6160 C   0  0  0  0  0  0  0  0  0  0  0  0
   -3.8430   12.4420   19.9790 C   0  0  0  0  0  0  0  0  0  0  0  0
   -5.0130   12.9030   20.5740 C   0  0  0  0  0  0  0  0  0  0  0  0
   -4.9570   13.5300   21.8180 C   0  0  0  0  0  0  0  0  0  0  0  0
   -3.7580   13.7130   22.4890 C   0  0  0  0  0  0  0  0  0  0  0  0
   -3.7870   14.3270   23.6860 N   0  0  0  0  0  0  0  0  0  0  0  0
   -0.4780   14.2880   24.3830 H   0  0  0  0  0  0  0  0  0  0  0  0
   -0.4230   13.1570   22.1870 H   0  0  0  0  0  0  0  0  0  0  0  0
   -3.9100   11.9390   19.0200 H   0  0  0  0  0  0  0  0  0  0  0  0
   -5.9700   12.7720   20.0760 H   0  0  0  0  0  0  0  0  0  0  0  0
   -5.8740   13.8870   22.2790 H   0  0  0  0  0  0  0  0  0  0  0  0
   -2.6920   15.2230   25.6690 C   0  0  0  0  0  0  0  0  0  0  0  0
   -3.7060   15.5890   25.8470 H   0  0  0  0  0  0  0  0  0  0  0  0
   -1.9960   16.0670   25.6890 H   0  0  0  0  0  0  0  0  0  0  0  0
   -2.4250   14.5450   26.4860 H   0  0  0  0  0  0  0  0  0  0  0  0
    0.9730    9.6580   17.7610 C   0  0  0  0  0  0  0  0  0  0  0  0
    0.7680    8.8860   17.0070 H   0  0  0  0  0  0  0  0  0  0  0  0
    1.0390   10.6110   17.2200 H   0  0  0  0  0  0  0  0  0  0  0  0
    2.3450    9.3390   18.3880 C   0  0  0  0  0  0  0  0  0  0  0  0
    2.3570    9.5470   19.4650 H   0  0  0  0  0  0  0  0  0  0  0  0
    3.0850   10.0280   17.9570 H   0  0  0  0  0  0  0  0  0  0  0  0
    2.8040    7.9200   18.1410 C   0  0  0  0  0  0  0  0  0  0  0  0
    3.8410    7.6410   17.2590 C   0  0  0  0  0  0  0  0  0  0  0  0
    4.2610    6.3210   17.0680 C   0  0  0  0  0  0  0  0  0  0  0  0
    3.6570    5.2220   17.7430 C   0  0  0  0  0  0  0  0  0  0  0  0
    4.0090    3.8390   17.6160 C   0  0  0  0  0  0  0  0  0  0  0  0
    3.3030    2.9020   18.3770 C   0  0  0  0  0  0  0  0  0  0  0  0
    2.3090    3.2730   19.2080 N   0  0  0  0  0  0  0  0  0  0  0  0
    1.9680    4.5870   19.3270 N   0  0  0  0  0  0  0  0  0  0  0  0
    2.6080    5.5320   18.6310 C   0  0  0  0  0  0  0  0  0  0  0  0
    2.2050    6.8500   18.8150 C   0  0  0  0  0  0  0  0  0  0  0  0
    4.3250    8.4580   16.7330 H   0  0  0  0  0  0  0  0  0  0  0  0
    1.3930    7.0400   19.5150 H   0  0  0  0  0  0  0  0  0  0  0  0
    5.1110    3.3980   16.6890 C   0  0  0  0  0  0  0  0  0  0  0  0
    5.2610    2.3170   16.7630 H   0  0  0  0  0  0  0  0  0  0  0  0
    4.9020    3.6090   15.6380 H   0  0  0  0  0  0  0  0  0  0  0  0
    6.0400    3.9280   16.9270 H   0  0  0  0  0  0  0  0  0  0  0  0
    3.5830    1.4300   18.3410 C   0  0  0  0  0  0  0  0  0  0  0  0
    3.0400    0.9490   17.5190 H   0  0  0  0  0  0  0  0  0  0  0  0
    3.2590    0.9550   19.2720 H   0  0  0  0  0  0  0  0  0  0  0  0
    4.6490    1.2470   18.1830 H   0  0  0  0  0  0  0  0  0  0  0  0
    5.2990    6.1070   16.1970 O   0  0  0  0  0  0  0  0  0  0  0  0
    5.2020    6.7020   15.4350 H   0  0  0  0  0  0  0  0  0  0  0  0
  1 19  1  0  0  0  0
  1  2  1  0  0  0  0
  2  7  1  0  0  0  0
  2  8  1  0  0  0  0
  3 10  1  0  0  0  0
  3  2  1  0  0  0  0
  4  3  1  0  0  0  0
  5 11  1  0  0  0  0
  5  6  1  0  0  0  0
  5  4  1  0  0  0  0
  6  1  1  0  0  0  0
  9  3  1  0  0  0  0
 12  5  1  0  0  0  0
 13  6  1  0  0  0  0
 14  6  1  0  0  0  0
 15 30  1  0  0  0  0
 16 15  1  0  0  0  0
 16 25  1  0  0  0  0
 17 16  2  0  0  0  0
 18 23  1  0  0  0  0
 18 17  1  0  0  0  0
 19 18  2  0  0  0  0
 20 21  2  0  0  0  0
 20 19  1  0  0  0  0
 21 22  1  0  0  0  0
 22 29  1  0  0  0  0
 22 23  2  0  0  0  0
 23 24  1  0  0  0  0
 24 15  2  0  0  0  0
 26 17  1  0  0  0  0
 27 20  1  0  0  0  0
 28 21  1  0  0  0  0
 30 32  1  0  0  0  0
 30 31  1  0  0  0  0
 30 33  1  0  0  0  0
 34 37  1  0  0  0  0
 34  4  1  0  0  0  0
 35 34  1  0  0  0  0
 36 34  1  0  0  0  0
 37 38  1  0  0  0  0
 39 37  1  0  0  0  0
 40 37  1  0  0  0  0
 40 49  1  0  0  0  0
 41 40  2  0  0  0  0
 42 41  1  0  0  0  0
 42 43  2  0  0  0  0
 43 48  1  0  0  0  0
 44 43  1  0  0  0  0
 44 45  2  0  0  0  0
 45 46  1  0  0  0  0
 46 47  2  0  0  0  0
 48 49  2  0  0  0  0
 48 47  1  0  0  0  0
 49 51  1  0  0  0  0
 50 41  1  0  0  0  0
 52 53  1  0  0  0  0
 52 55  1  0  0  0  0
 52 44  1  0  0  0  0
 54 52  1  0  0  0  0
 56 45  1  0  0  0  0
 56 58  1  0  0  0  0
 57 56  1  0  0  0  0
 59 56  1  0  0  0  0
 60 42  1  0  0  0  0
 61 60  1  0  0  0  0
M  END
>  <MODEL>
1

>  <REMARK>
 VINA RESULT:    -8.321      0.000      0.000
 INTER + INTRA:         -10.024
 INTER:                  -9.792
 INTRA:                  -0.231
 UNBOUND:                 1.216
  Name = 
  8 active torsions:
  status: ('A' for Active; 'I' for Inactive)
    1  A    between atoms: C_1  and  C_2
    2  A    between atoms: C_6  and  N_7
    3  A    between atoms: N_10  and  C_11
    4  A    between atoms: C_11  and  C_12
    5  A    between atoms: C_12  and  C_13
    6  A    between atoms: C_15  and  O_16
    7  A    between atoms: C_18  and  C_19
    8  A    between atoms: C_20  and  C_21
                            x       y       z     vdW  Elec       q    Type
                         _______ _______ _______ _____ _____    ______ ____

>  <TORSDO>
F 8

$$$$
=
 OpenBabel07192307433D

 61 65  0  0  0  0  0  0  0  0999 V2000
   -1.4040   12.1420   19.9730 N   0  0  0  0  0  0  0  0  0  0  0  0
   -0.8110   11.0510   20.7820 C   0  0  0  0  0  0  0  0  0  0  0  0
    0.3360   10.3730   20.0000 C   0  0  0  0  0  0  0  0  0  0  0  0
   -0.1090    9.7040   18.7500 N   0  0  0  0  0  0  0  0  0  0  0  0
   -1.3110   10.3680   18.1920 C   0  0  0  0  0  0  0  0  0  0  0  0
   -1.4560   11.8710   18.5180 C   0  0  0  0  0  0  0  0  0  0  0  0
   -1.5630   10.2960   21.0500 H   0  0  0  0  0  0  0  0  0  0  0  0
   -0.4100   11.4650   21.7160 H   0  0  0  0  0  0  0  0  0  0  0  0
    1.0890   11.1410   19.7800 H   0  0  0  0  0  0  0  0  0  0  0  0
    0.8090    9.6280   20.6490 H   0  0  0  0  0  0  0  0  0  0  0  0
   -2.1790    9.8400   18.6070 H   0  0  0  0  0  0  0  0  0  0  0  0
   -1.3800   10.2220   17.1070 H   0  0  0  0  0  0  0  0  0  0  0  0
   -0.6240   12.4150   18.0540 H   0  0  0  0  0  0  0  0  0  0  0  0
   -2.3700   12.2660   18.0560 H   0  0  0  0  0  0  0  0  0  0  0  0
   -2.5820   14.5580   24.2840 C   0  0  0  0  0  0  0  0  0  0  0  0
   -1.3630   14.1530   23.7650 C   0  0  0  0  0  0  0  0  0  0  0  0
   -1.3500   13.5120   22.5310 C   0  0  0  0  0  0  0  0  0  0  0  0
   -2.5450   13.2800   21.8280 C   0  0  0  0  0  0  0  0  0  0  0  0
   -2.5930   12.6320   20.5590 C   0  0  0  0  0  0  0  0  0  0  0  0
   -3.8370   12.4610   19.9350 C   0  0  0  0  0  0  0  0  0  0  0  0
   -5.0040   12.9210   20.5380 C   0  0  0  0  0  0  0  0  0  0  0  0
   -4.9370   13.5520   21.7790 C   0  0  0  0  0  0  0  0  0  0  0  0
   -3.7330   13.7420   22.4390 C   0  0  0  0  0  0  0  0  0  0  0  0
   -3.7520   14.3600   23.6340 N   0  0  0  0  0  0  0  0  0  0  0  0
   -0.4370   14.3330   24.3000 H   0  0  0  0  0  0  0  0  0  0  0  0
   -0.4000   13.1950   22.1080 H   0  0  0  0  0  0  0  0  0  0  0  0
   -3.9120   11.9540   18.9770 H   0  0  0  0  0  0  0  0  0  0  0  0
   -5.9640   12.7850   20.0500 H   0  0  0  0  0  0  0  0  0  0  0  0
   -5.8520   13.9080   22.2470 H   0  0  0  0  0  0  0  0  0  0  0  0
   -2.6420   15.2670   25.6030 C   0  0  0  0  0  0  0  0  0  0  0  0
   -2.7010   14.5410   26.4180 H   0  0  0  0  0  0  0  0  0  0  0  0
   -3.5150   15.9250   25.6430 H   0  0  0  0  0  0  0  0  0  0  0  0
   -1.7480   15.8810   25.7550 H   0  0  0  0  0  0  0  0  0  0  0  0
    0.9800    9.6300   17.7550 C   0  0  0  0  0  0  0  0  0  0  0  0
    0.7280    8.8820   16.9920 H   0  0  0  0  0  0  0  0  0  0  0  0
    1.0680   10.5910   17.2300 H   0  0  0  0  0  0  0  0  0  0  0  0
    2.3550    9.2500   18.3400 C   0  0  0  0  0  0  0  0  0  0  0  0
    2.5800    9.8210   19.2500 H   0  0  0  0  0  0  0  0  0  0  0  0
    3.1270    9.5490   17.6190 H   0  0  0  0  0  0  0  0  0  0  0  0
    2.5000    7.7720   18.6220 C   0  0  0  0  0  0  0  0  0  0  0  0
    1.9930    7.2070   19.7860 C   0  0  0  0  0  0  0  0  0  0  0  0
    2.1210    5.8330   20.0100 C   0  0  0  0  0  0  0  0  0  0  0  0
    2.7660    4.9650   19.0840 C   0  0  0  0  0  0  0  0  0  0  0  0
    2.9500    3.5500   19.2190 C   0  0  0  0  0  0  0  0  0  0  0  0
    3.6020    2.8640   18.1890 C   0  0  0  0  0  0  0  0  0  0  0  0
    4.0590    3.5040   17.0950 N   0  0  0  0  0  0  0  0  0  0  0  0
    3.8900    4.8500   16.9650 N   0  0  0  0  0  0  0  0  0  0  0  0
    3.2710    5.5620   17.9120 C   0  0  0  0  0  0  0  0  0  0  0  0
    3.1320    6.9300   17.7010 C   0  0  0  0  0  0  0  0  0  0  0  0
    1.4910    7.8420   20.5100 H   0  0  0  0  0  0  0  0  0  0  0  0
    3.5340    7.3450   16.7780 H   0  0  0  0  0  0  0  0  0  0  0  0
    2.4550    2.8140   20.4360 C   0  0  0  0  0  0  0  0  0  0  0  0
    1.4460    3.1470   20.6980 H   0  0  0  0  0  0  0  0  0  0  0  0
    2.3930    1.7330   20.2900 H   0  0  0  0  0  0  0  0  0  0  0  0
    3.1380    2.9700   21.2770 H   0  0  0  0  0  0  0  0  0  0  0  0
    3.8460    1.3860   18.2070 C   0  0  0  0  0  0  0  0  0  0  0  0
    3.2730    0.9050   19.0090 H   0  0  0  0  0  0  0  0  0  0  0  0
    4.9040    1.1740   18.3850 H   0  0  0  0  0  0  0  0  0  0  0  0
    3.5310    0.9350   17.2620 H   0  0  0  0  0  0  0  0  0  0  0  0
    1.5880    5.3290   21.1700 O   0  0  0  0  0  0  0  0  0  0  0  0
    0.8250    5.8690   21.4300 H   0  0  0  0  0  0  0  0  0  0  0  0
  1 19  1  0  0  0  0
  1  2  1  0  0  0  0
  2  7  1  0  0  0  0
  2  8  1  0  0  0  0
  3 10  1  0  0  0  0
  3  2  1  0  0  0  0
  4  3  1  0  0  0  0
  5  6  1  0  0  0  0
  5 11  1  0  0  0  0
  5  4  1  0  0  0  0
  6  1  1  0  0  0  0
  9  3  1  0  0  0  0
 12  5  1  0  0  0  0
 13  6  1  0  0  0  0
 14  6  1  0  0  0  0
 15 30  1  0  0  0  0
 16 15  1  0  0  0  0
 16 25  1  0  0  0  0
 17 16  2  0  0  0  0
 18 23  1  0  0  0  0
 18 17  1  0  0  0  0
 19 18  2  0  0  0  0
 20 21  2  0  0  0  0
 20 19  1  0  0  0  0
 21 22  1  0  0  0  0
 22 29  1  0  0  0  0
 22 23  2  0  0  0  0
 23 24  1  0  0  0  0
 24 15  2  0  0  0  0
 26 17  1  0  0  0  0
 27 20  1  0  0  0  0
 28 21  1  0  0  0  0
 30 32  1  0  0  0  0
 30 33  1  0  0  0  0
 30 31  1  0  0  0  0
 34 37  1  0  0  0  0
 34  4  1  0  0  0  0
 35 34  1  0  0  0  0
 36 34  1  0  0  0  0
 37 40  1  0  0  0  0
 37 38  1  0  0  0  0
 39 37  1  0  0  0  0
 40 41  1  0  0  0  0
 41 42  2  0  0  0  0
 41 50  1  0  0  0  0
 42 60  1  0  0  0  0
 43 44  1  0  0  0  0
 43 42  1  0  0  0  0
 44 52  1  0  0  0  0
 45 56  1  0  0  0  0
 45 44  2  0  0  0  0
 46 45  1  0  0  0  0
 47 46  2  0  0  0  0
 47 48  1  0  0  0  0
 48 43  2  0  0  0  0
 49 48  1  0  0  0  0
 49 40  2  0  0  0  0
 51 49  1  0  0  0  0
 52 53  1  0  0  0  0
 52 55  1  0  0  0  0
 54 52  1  0  0  0  0
 56 58  1  0  0  0  0
 56 57  1  0  0  0  0
 59 56  1  0  0  0  0
 60 61  1  0  0  0  0
M  END
>  <MODEL>
2

>  <REMARK>
 VINA RESULT:    -8.280      1.461      1.863
 INTER + INTRA:          -9.968
 INTER:                  -9.891
 INTRA:                  -0.077
 UNBOUND:                 1.216
  Name = 
  8 active torsions:
  status: ('A' for Active; 'I' for Inactive)
    1  A    between atoms: C_1  and  C_2
    2  A    between atoms: C_6  and  N_7
    3  A    between atoms: N_10  and  C_11
    4  A    between atoms: C_11  and  C_12
    5  A    between atoms: C_12  and  C_13
    6  A    between atoms: C_15  and  O_16
    7  A    between atoms: C_18  and  C_19
    8  A    between atoms: C_20  and  C_21
                            x       y       z     vdW  Elec       q    Type
                         _______ _______ _______ _____ _____    ______ ____

>  <TORSDO>
F 8

$$$$
=
 OpenBabel07192307433D

 61 65  0  0  0  0  0  0  0  0999 V2000
    2.8040    6.6640   19.2010 N   0  0  0  0  0  0  0  0  0  0  0  0
    2.0130    7.5950   18.3620 C   0  0  0  0  0  0  0  0  0  0  0  0
    1.6560    8.8630   19.1690 C   0  0  0  0  0  0  0  0  0  0  0  0
    0.7860    8.5970   20.3450 N   0  0  0  0  0  0  0  0  0  0  0  0
    1.0050    7.2270   20.8680 C   0  0  0  0  0  0  0  0  0  0  0  0
    2.4140    6.6400   20.6300 C   0  0  0  0  0  0  0  0  0  0  0  0
    1.0890    7.1240   18.0010 H   0  0  0  0  0  0  0  0  0  0  0  0
    2.6020    7.8860   17.4840 H   0  0  0  0  0  0  0  0  0  0  0  0
    2.5970    9.3340   19.4850 H   0  0  0  0  0  0  0  0  0  0  0  0
    1.1440    9.5680   18.5050 H   0  0  0  0  0  0  0  0  0  0  0  0
    0.2740    6.5820   20.3670 H   0  0  0  0  0  0  0  0  0  0  0  0
    0.7590    7.1640   21.9350 H   0  0  0  0  0  0  0  0  0  0  0  0
    3.1470    7.2450   21.1790 H   0  0  0  0  0  0  0  0  0  0  0  0
    2.4750    5.6310   21.0580 H   0  0  0  0  0  0  0  0  0  0  0  0
    5.7790    4.7790   15.5400 C   0  0  0  0  0  0  0  0  0  0  0  0
    5.7360    6.0320   16.1310 C   0  0  0  0  0  0  0  0  0  0  0  0
    4.8030    6.2560   17.1370 C   0  0  0  0  0  0  0  0  0  0  0  0
    3.9260    5.2350   17.5460 C   0  0  0  0  0  0  0  0  0  0  0  0
    2.9540    5.4050   18.5750 C   0  0  0  0  0  0  0  0  0  0  0  0
    2.1350    4.3190   18.9160 C   0  0  0  0  0  0  0  0  0  0  0  0
    2.2730    3.0950   18.2690 C   0  0  0  0  0  0  0  0  0  0  0  0
    3.2300    2.9470   17.2660 C   0  0  0  0  0  0  0  0  0  0  0  0
    4.0600    3.9910   16.8890 C   0  0  0  0  0  0  0  0  0  0  0  0
    4.9580    3.7690   15.9120 N   0  0  0  0  0  0  0  0  0  0  0  0
    6.4120    6.8210   15.8230 H   0  0  0  0  0  0  0  0  0  0  0  0
    4.7620    7.2320   17.6140 H   0  0  0  0  0  0  0  0  0  0  0  0
    1.3710    4.4200   19.6810 H   0  0  0  0  0  0  0  0  0  0  0  0
    1.6360    2.2580   18.5380 H   0  0  0  0  0  0  0  0  0  0  0  0
    3.3330    1.9890   16.7620 H   0  0  0  0  0  0  0  0  0  0  0  0
    6.7790    4.4880   14.4630 C   0  0  0  0  0  0  0  0  0  0  0  0
    6.3660    4.7520   13.4860 H   0  0  0  0  0  0  0  0  0  0  0  0
    7.0460    3.4270   14.4660 H   0  0  0  0  0  0  0  0  0  0  0  0
    7.6950    5.0680   14.6150 H   0  0  0  0  0  0  0  0  0  0  0  0
    0.9670    9.6150   21.3990 C   0  0  0  0  0  0  0  0  0  0  0  0
    0.1450    9.5430   22.1220 H   0  0  0  0  0  0  0  0  0  0  0  0
    1.8910    9.4100   21.9560 H   0  0  0  0  0  0  0  0  0  0  0  0
    1.0040   11.0680   20.8830 C   0  0  0  0  0  0  0  0  0  0  0  0
    1.2550   11.1140   19.8160 H   0  0  0  0  0  0  0  0  0  0  0  0
    1.8250   11.5900   21.3920 H   0  0  0  0  0  0  0  0  0  0  0  0
   -0.2800   11.8260   21.1320 C   0  0  0  0  0  0  0  0  0  0  0  0
   -1.2590   11.9280   20.1500 C   0  0  0  0  0  0  0  0  0  0  0  0
   -2.4480   12.6150   20.4160 C   0  0  0  0  0  0  0  0  0  0  0  0
   -2.7070   13.2360   21.6710 C   0  0  0  0  0  0  0  0  0  0  0  0
   -3.8850   13.9620   22.0420 C   0  0  0  0  0  0  0  0  0  0  0  0
   -3.9600   14.4900   23.3340 C   0  0  0  0  0  0  0  0  0  0  0  0
   -2.9550   14.3370   24.2180 N   0  0  0  0  0  0  0  0  0  0  0  0
   -1.8300   13.6510   23.8670 N   0  0  0  0  0  0  0  0  0  0  0  0
   -1.7000   13.1180   22.6490 C   0  0  0  0  0  0  0  0  0  0  0  0
   -0.5250   12.4270   22.3710 C   0  0  0  0  0  0  0  0  0  0  0  0
   -1.0930   11.4610   19.1840 H   0  0  0  0  0  0  0  0  0  0  0  0
    0.2220   12.3580   23.1610 H   0  0  0  0  0  0  0  0  0  0  0  0
   -5.0200   14.1530   21.0700 C   0  0  0  0  0  0  0  0  0  0  0  0
   -5.5030   15.1210   21.2340 H   0  0  0  0  0  0  0  0  0  0  0  0
   -4.7000   14.1430   20.0260 H   0  0  0  0  0  0  0  0  0  0  0  0
   -5.7480   13.3410   21.1740 H   0  0  0  0  0  0  0  0  0  0  0  0
   -5.1410   15.2580   23.8450 C   0  0  0  0  0  0  0  0  0  0  0  0
   -4.9720   15.5970   24.8740 H   0  0  0  0  0  0  0  0  0  0  0  0
   -6.0360   14.6280   23.8490 H   0  0  0  0  0  0  0  0  0  0  0  0
   -5.3160   16.1460   23.2300 H   0  0  0  0  0  0  0  0  0  0  0  0
   -3.3840   12.6710   19.4140 O   0  0  0  0  0  0  0  0  0  0  0  0
   -2.9490   12.4970   18.5640 H   0  0  0  0  0  0  0  0  0  0  0  0
  1  6  1  0  0  0  0
  2  3  1  0  0  0  0
  2  1  1  0  0  0  0
  3  9  1  0  0  0  0
  3  4  1  0  0  0  0
  4  5  1  0  0  0  0
  4 34  1  0  0  0  0
  5 12  1  0  0  0  0
  6  5  1  0  0  0  0
  6 14  1  0  0  0  0
  6 13  1  0  0  0  0
  7  2  1  0  0  0  0
  8  2  1  0  0  0  0
 10  3  1  0  0  0  0
 11  5  1  0  0  0  0
 15 24  2  0  0  0  0
 15 16  1  0  0  0  0
 16 17  2  0  0  0  0
 17 18  1  0  0  0  0
 17 26  1  0  0  0  0
 18 19  1  0  0  0  0
 19 20  2  0  0  0  0
 19  1  1  0  0  0  0
 20 27  1  0  0  0  0
 21 28  1  0  0  0  0
 21 20  1  0  0  0  0
 22 21  2  0  0  0  0
 23 22  1  0  0  0  0
 23 18  2  0  0  0  0
 24 23  1  0  0  0  0
 25 16  1  0  0  0  0
 29 22  1  0  0  0  0
 30 32  1  0  0  0  0
 30 33  1  0  0  0  0
 30 15  1  0  0  0  0
 31 30  1  0  0  0  0
 34 36  1  0  0  0  0
 34 35  1  0  0  0  0
 37 40  1  0  0  0  0
 37 39  1  0  0  0  0
 37 34  1  0  0  0  0
 38 37  1  0  0  0  0
 40 49  1  0  0  0  0
 41 42  1  0  0  0  0
 41 40  2  0  0  0  0
 42 43  2  0  0  0  0
 43 44  1  0  0  0  0
 43 48  1  0  0  0  0
 44 45  2  0  0  0  0
 45 56  1  0  0  0  0
 45 46  1  0  0  0  0
 47 46  2  0  0  0  0
 48 47  1  0  0  0  0
 49 48  2  0  0  0  0
 49 51  1  0  0  0  0
 50 41  1  0  0  0  0
 52 55  1  0  0  0  0
 52 53  1  0  0  0  0
 52 44  1  0  0  0  0
 54 52  1  0  0  0  0
 56 58  1  0  0  0  0
 56 57  1  0  0  0  0
 59 56  1  0  0  0  0
 60 42  1  0  0  0  0
 61 60  1  0  0  0  0
M  END
>  <MODEL>
3

>  <REMARK>
 VINA RESULT:    -8.057      2.591     11.110
 INTER + INTRA:          -9.667
 INTER:                  -9.283
 INTRA:                  -0.384
 UNBOUND:                 1.216
  Name = 
  8 active torsions:
  status: ('A' for Active; 'I' for Inactive)
    1  A    between atoms: C_1  and  C_2
    2  A    between atoms: C_6  and  N_7
    3  A    between atoms: N_10  and  C_11
    4  A    between atoms: C_11  and  C_12
    5  A    between atoms: C_12  and  C_13
    6  A    between atoms: C_15  and  O_16
    7  A    between atoms: C_18  and  C_19
    8  A    between atoms: C_20  and  C_21
                            x       y       z     vdW  Elec       q    Type
                         _______ _______ _______ _____ _____    ______ ____

>  <TORSDO>
F 8

$$$$
=
 OpenBabel07192307433D

 61 65  0  0  0  0  0  0  0  0999 V2000
   -0.4360   11.7700   20.5970 N   0  0  0  0  0  0  0  0  0  0  0  0
   -1.0460   12.0100   19.2670 C   0  0  0  0  0  0  0  0  0  0  0  0
   -0.7740   10.8100   18.3340 C   0  0  0  0  0  0  0  0  0  0  0  0
    0.6680   10.5930   18.0440 N   0  0  0  0  0  0  0  0  0  0  0  0
    1.5120   11.0730   19.1650 C   0  0  0  0  0  0  0  0  0  0  0  0
    0.8510   11.0380   20.5610 C   0  0  0  0  0  0  0  0  0  0  0  0
   -0.6510   12.9250   18.8050 H   0  0  0  0  0  0  0  0  0  0  0  0
   -2.1300   12.1360   19.3800 H   0  0  0  0  0  0  0  0  0  0  0  0
   -1.2110    9.9180   18.8020 H   0  0  0  0  0  0  0  0  0  0  0  0
   -1.3020   10.9750   17.3880 H   0  0  0  0  0  0  0  0  0  0  0  0
    1.7740   12.1140   18.9340 H   0  0  0  0  0  0  0  0  0  0  0  0
    2.4690   10.5390   19.2000 H   0  0  0  0  0  0  0  0  0  0  0  0
    0.6420    9.9940   20.8260 H   0  0  0  0  0  0  0  0  0  0  0  0
    1.5570   11.4050   21.3170 H   0  0  0  0  0  0  0  0  0  0  0  0
   -3.9420   14.1050   23.4360 C   0  0  0  0  0  0  0  0  0  0  0  0
   -3.9880   12.9230   22.7130 C   0  0  0  0  0  0  0  0  0  0  0  0
   -2.8450   12.5220   22.0300 C   0  0  0  0  0  0  0  0  0  0  0  0
   -1.6720   13.2960   22.0740 C   0  0  0  0  0  0  0  0  0  0  0  0
   -0.4700   12.9330   21.3990 C   0  0  0  0  0  0  0  0  0  0  0  0
    0.6500   13.7690   21.5170 C   0  0  0  0  0  0  0  0  0  0  0  0
    0.5930   14.9280   22.2840 C   0  0  0  0  0  0  0  0  0  0  0  0
   -0.5910   15.2670   22.9380 C   0  0  0  0  0  0  0  0  0  0  0  0
   -1.7260   14.4770   22.8490 C   0  0  0  0  0  0  0  0  0  0  0  0
   -2.8300   14.8720   23.5090 N   0  0  0  0  0  0  0  0  0  0  0  0
   -4.8880   12.3200   22.6790 H   0  0  0  0  0  0  0  0  0  0  0  0
   -2.8640   11.5940   21.4630 H   0  0  0  0  0  0  0  0  0  0  0  0
    1.5750   13.5330   21.0000 H   0  0  0  0  0  0  0  0  0  0  0  0
    1.4640   15.5720   22.3720 H   0  0  0  0  0  0  0  0  0  0  0  0
   -0.6310   16.1740   23.5350 H   0  0  0  0  0  0  0  0  0  0  0  0
   -5.1450   14.5670   24.2000 C   0  0  0  0  0  0  0  0  0  0  0  0
   -6.0570   14.3210   23.6500 H   0  0  0  0  0  0  0  0  0  0  0  0
   -5.1030   15.6480   24.3620 H   0  0  0  0  0  0  0  0  0  0  0  0
   -5.1960   14.0800   25.1790 H   0  0  0  0  0  0  0  0  0  0  0  0
    0.9530    9.1820   17.7180 C   0  0  0  0  0  0  0  0  0  0  0  0
    0.3690    8.5290   18.3790 H   0  0  0  0  0  0  0  0  0  0  0  0
    0.6210    8.9640   16.6940 H   0  0  0  0  0  0  0  0  0  0  0  0
    2.4350    8.7800   17.8620 C   0  0  0  0  0  0  0  0  0  0  0  0
    2.9800    9.4720   18.5150 H   0  0  0  0  0  0  0  0  0  0  0  0
    2.9120    8.8810   16.8780 H   0  0  0  0  0  0  0  0  0  0  0  0
    2.6280    7.3640   18.3520 C   0  0  0  0  0  0  0  0  0  0  0  0
    2.2760    6.9940   19.6450 C   0  0  0  0  0  0  0  0  0  0  0  0
    2.4440    5.6710   20.0650 C   0  0  0  0  0  0  0  0  0  0  0  0
    2.9770    4.6620   19.2130 C   0  0  0  0  0  0  0  0  0  0  0  0
    3.1900    3.2840   19.5450 C   0  0  0  0  0  0  0  0  0  0  0  0
    3.7140    2.4380   18.5630 C   0  0  0  0  0  0  0  0  0  0  0  0
    4.0240    2.8930   17.3330 N   0  0  0  0  0  0  0  0  0  0  0  0
    3.8280    4.2030   17.0150 N   0  0  0  0  0  0  0  0  0  0  0  0
    3.3250    5.0610   17.9080 C   0  0  0  0  0  0  0  0  0  0  0  0
    3.1480    6.3800   17.5040 C   0  0  0  0  0  0  0  0  0  0  0  0
    1.8630    7.7400   20.3170 H   0  0  0  0  0  0  0  0  0  0  0  0
    3.4270    6.6410   16.4840 H   0  0  0  0  0  0  0  0  0  0  0  0
    2.8580    2.7530   20.9150 C   0  0  0  0  0  0  0  0  0  0  0  0
    2.4460    3.5490   21.5420 H   0  0  0  0  0  0  0  0  0  0  0  0
    2.1100    1.9560   20.8990 H   0  0  0  0  0  0  0  0  0  0  0  0
    3.7510    2.3240   21.3810 H   0  0  0  0  0  0  0  0  0  0  0  0
    3.9730    0.9780   18.7820 C   0  0  0  0  0  0  0  0  0  0  0  0
    4.4710    0.5340   17.9130 H   0  0  0  0  0  0  0  0  0  0  0  0
    3.0320    0.4400   18.9330 H   0  0  0  0  0  0  0  0  0  0  0  0
    4.6260    0.8300   19.6470 H   0  0  0  0  0  0  0  0  0  0  0  0
    2.0660    5.3610   21.3460 O   0  0  0  0  0  0  0  0  0  0  0  0
    1.4860    6.0620   21.6840 H   0  0  0  0  0  0  0  0  0  0  0  0
  1 19  1  0  0  0  0
  2  8  1  0  0  0  0
  2  1  1  0  0  0  0
  3  9  1  0  0  0  0
  3  2  1  0  0  0  0
  4  3  1  0  0  0  0
  4  5  1  0  0  0  0
  5 12  1  0  0  0  0
  5  6  1  0  0  0  0
  6  1  1  0  0  0  0
  6 13  1  0  0  0  0
  6 14  1  0  0  0  0
  7  2  1  0  0  0  0
 10  3  1  0  0  0  0
 11  5  1  0  0  0  0
 15 24  1  0  0  0  0
 15 30  1  0  0  0  0
 16 15  2  0  0  0  0
 17 18  2  0  0  0  0
 17 16  1  0  0  0  0
 18 23  1  0  0  0  0
 19 20  2  0  0  0  0
 19 18  1  0  0  0  0
 20 21  1  0  0  0  0
 21 28  1  0  0  0  0
 21 22  2  0  0  0  0
 22 29  1  0  0  0  0
 23 22  1  0  0  0  0
 23 24  2  0  0  0  0
 25 16  1  0  0  0  0
 26 17  1  0  0  0  0
 27 20  1  0  0  0  0
 30 32  1  0  0  0  0
 30 33  1  0  0  0  0
 31 30  1  0  0  0  0
 34 37  1  0  0  0  0
 34  4  1  0  0  0  0
 34 35  1  0  0  0  0
 36 34  1  0  0  0  0
 37 40  1  0  0  0  0
 37 38  1  0  0  0  0
 39 37  1  0  0  0  0
 40 41  1  0  0  0  0
 41 42  2  0  0  0  0
 41 50  1  0  0  0  0
 42 60  1  0  0  0  0
 43 44  1  0  0  0  0
 43 42  1  0  0  0  0
 44 52  1  0  0  0  0
 45 56  1  0  0  0  0
 45 44  2  0  0  0  0
 46 45  1  0  0  0  0
 47 46  2  0  0  0  0
 47 48  1  0  0  0  0
 48 43  2  0  0  0  0
 49 48  1  0  0  0  0
 49 40  2  0  0  0  0
 51 49  1  0  0  0  0
 52 55  1  0  0  0  0
 52 53  1  0  0  0  0
 54 52  1  0  0  0  0
 56 58  1  0  0  0  0
 56 59  1  0  0  0  0
 57 56  1  0  0  0  0
 60 61  1  0  0  0  0
M  END
>  <MODEL>
4

>  <REMARK>
 VINA RESULT:    -8.032      1.834      2.874
 INTER + INTRA:          -9.633
 INTER:                  -9.176
 INTRA:                  -0.457
 UNBOUND:                 1.216
  Name = 
  8 active torsions:
  status: ('A' for Active; 'I' for Inactive)
    1  A    between atoms: C_1  and  C_2
    2  A    between atoms: C_6  and  N_7
    3  A    between atoms: N_10  and  C_11
    4  A    between atoms: C_11  and  C_12
    5  A    between atoms: C_12  and  C_13
    6  A    between atoms: C_15  and  O_16
    7  A    between atoms: C_18  and  C_19
    8  A    between atoms: C_20  and  C_21
                            x       y       z     vdW  Elec       q    Type
                         _______ _______ _______ _____ _____    ______ ____

>  <TORSDO>
F 8

$$$$
=
 OpenBabel07192307433D

 61 65  0  0  0  0  0  0  0  0999 V2000
   -1.3060   10.6720   18.6020 N   0  0  0  0  0  0  0  0  0  0  0  0
   -0.4350   11.8400   18.8770 C   0  0  0  0  0  0  0  0  0  0  0  0
    0.8350   11.3880   19.6310 C   0  0  0  0  0  0  0  0  0  0  0  0
    0.5600   10.8100   20.9720 N   0  0  0  0  0  0  0  0  0  0  0  0
   -0.7830   10.1840   21.0140 C   0  0  0  0  0  0  0  0  0  0  0  0
   -1.3100    9.6420   19.6660 C   0  0  0  0  0  0  0  0  0  0  0  0
   -0.9600   12.5990   19.4740 H   0  0  0  0  0  0  0  0  0  0  0  0
   -0.1400   12.3070   17.9300 H   0  0  0  0  0  0  0  0  0  0  0  0
    1.3580   10.6600   18.9970 H   0  0  0  0  0  0  0  0  0  0  0  0
    1.4970   12.2540   19.7500 H   0  0  0  0  0  0  0  0  0  0  0  0
   -1.4760   10.9570   21.3690 H   0  0  0  0  0  0  0  0  0  0  0  0
   -0.8300    9.3900   21.7690 H   0  0  0  0  0  0  0  0  0  0  0  0
   -0.6560    8.8260   19.3340 H   0  0  0  0  0  0  0  0  0  0  0  0
   -2.3020    9.1950   19.8060 H   0  0  0  0  0  0  0  0  0  0  0  0
   -3.8380   10.1530   14.2280 C   0  0  0  0  0  0  0  0  0  0  0  0
   -2.6010    9.6770   14.6330 C   0  0  0  0  0  0  0  0  0  0  0  0
   -2.1660    9.9750   15.9190 C   0  0  0  0  0  0  0  0  0  0  0  0
   -2.9630   10.7410   16.7890 C   0  0  0  0  0  0  0  0  0  0  0  0
   -2.5720   11.0740   18.1180 C   0  0  0  0  0  0  0  0  0  0  0  0
   -3.4460   11.8330   18.9090 C   0  0  0  0  0  0  0  0  0  0  0  0
   -4.6760   12.2490   18.4090 C   0  0  0  0  0  0  0  0  0  0  0  0
   -5.0420   11.9130   17.1060 C   0  0  0  0  0  0  0  0  0  0  0  0
   -4.2120   11.1690   16.2840 C   0  0  0  0  0  0  0  0  0  0  0  0
   -4.6360   10.8860   15.0380 N   0  0  0  0  0  0  0  0  0  0  0  0
   -1.9840    9.0820   13.9690 H   0  0  0  0  0  0  0  0  0  0  0  0
   -1.2010    9.6020   16.2530 H   0  0  0  0  0  0  0  0  0  0  0  0
   -3.1710   12.1220   19.9200 H   0  0  0  0  0  0  0  0  0  0  0  0
   -5.3490   12.8370   19.0270 H   0  0  0  0  0  0  0  0  0  0  0  0
   -6.0040   12.2420   16.7200 H   0  0  0  0  0  0  0  0  0  0  0  0
   -4.3530    9.8430   12.8560 C   0  0  0  0  0  0  0  0  0  0  0  0
   -4.3160   10.7370   12.2290 H   0  0  0  0  0  0  0  0  0  0  0  0
   -5.3840    9.4820   12.9080 H   0  0  0  0  0  0  0  0  0  0  0  0
   -3.7460    9.0660   12.3790 H   0  0  0  0  0  0  0  0  0  0  0  0
    1.6130    9.8600   21.3830 C   0  0  0  0  0  0  0  0  0  0  0  0
    2.3590    9.7720   20.5820 H   0  0  0  0  0  0  0  0  0  0  0  0
    2.1440   10.2520   22.2600 H   0  0  0  0  0  0  0  0  0  0  0  0
    1.1030    8.4390   21.6980 C   0  0  0  0  0  0  0  0  0  0  0  0
    0.0070    8.3960   21.7140 H   0  0  0  0  0  0  0  0  0  0  0  0
    1.4130    8.1850   22.7200 H   0  0  0  0  0  0  0  0  0  0  0  0
    1.6370    7.3860   20.7540 C   0  0  0  0  0  0  0  0  0  0  0  0
    2.2740    7.7380   19.5690 C   0  0  0  0  0  0  0  0  0  0  0  0
    2.7790    6.7440   18.7250 C   0  0  0  0  0  0  0  0  0  0  0  0
    2.6630    5.3560   19.0240 C   0  0  0  0  0  0  0  0  0  0  0  0
    3.1430    4.2640   18.2290 C   0  0  0  0  0  0  0  0  0  0  0  0
    2.9440    2.9630   18.7010 C   0  0  0  0  0  0  0  0  0  0  0  0
    2.3120    2.7240   19.8670 N   0  0  0  0  0  0  0  0  0  0  0  0
    1.8510    3.7600   20.6230 N   0  0  0  0  0  0  0  0  0  0  0  0
    2.0140    5.0270   20.2300 C   0  0  0  0  0  0  0  0  0  0  0  0
    1.5210    6.0270   21.0610 C   0  0  0  0  0  0  0  0  0  0  0  0
    2.3830    8.7870   19.3150 H   0  0  0  0  0  0  0  0  0  0  0  0
    1.0310    5.7230   21.9850 H   0  0  0  0  0  0  0  0  0  0  0  0
    3.8460    4.5050   16.9190 C   0  0  0  0  0  0  0  0  0  0  0  0
    3.1730    5.0000   16.2110 H   0  0  0  0  0  0  0  0  0  0  0  0
    4.7220    5.1500   17.0120 H   0  0  0  0  0  0  0  0  0  0  0  0
    4.2050    3.5580   16.5040 H   0  0  0  0  0  0  0  0  0  0  0  0
    3.4060    1.7400   17.9690 C   0  0  0  0  0  0  0  0  0  0  0  0
    3.8590    1.0190   18.6590 H   0  0  0  0  0  0  0  0  0  0  0  0
    4.1640    2.0020   17.2240 H   0  0  0  0  0  0  0  0  0  0  0  0
    2.5630    1.2440   17.4800 H   0  0  0  0  0  0  0  0  0  0  0  0
    3.4120    7.1500   17.5770 O   0  0  0  0  0  0  0  0  0  0  0  0
    3.0490    8.0070   17.3010 H   0  0  0  0  0  0  0  0  0  0  0  0
  1  2  1  0  0  0  0
  1  6  1  0  0  0  0
  2  7  1  0  0  0  0
  2  3  1  0  0  0  0
  3 10  1  0  0  0  0
  3  4  1  0  0  0  0
  4  5  1  0  0  0  0
  4 34  1  0  0  0  0
  5 11  1  0  0  0  0
  5 12  1  0  0  0  0
  6 14  1  0  0  0  0
  6  5  1  0  0  0  0
  8  2  1  0  0  0  0
  9  3  1  0  0  0  0
 13  6  1  0  0  0  0
 15 16  2  0  0  0  0
 15 24  1  0  0  0  0
 16 17  1  0  0  0  0
 17 26  1  0  0  0  0
 17 18  2  0  0  0  0
 18 19  1  0  0  0  0
 19  1  1  0  0  0  0
 19 20  2  0  0  0  0
 20 27  1  0  0  0  0
 21 20  1  0  0  0  0
 21 28  1  0  0  0  0
 22 21  2  0  0  0  0
 23 18  1  0  0  0  0
 23 22  1  0  0  0  0
 24 23  2  0  0  0  0
 25 16  1  0  0  0  0
 29 22  1  0  0  0  0
 30 32  1  0  0  0  0
 30 15  1  0  0  0  0
 31 30  1  0  0  0  0
 33 30  1  0  0  0  0
 34 37  1  0  0  0  0
 34 36  1  0  0  0  0
 35 34  1  0  0  0  0
 37 38  1  0  0  0  0
 37 39  1  0  0  0  0
 40 49  1  0  0  0  0
 40 37  1  0  0  0  0
 41 40  2  0  0  0  0
 42 43  2  0  0  0  0
 42 41  1  0  0  0  0
 43 48  1  0  0  0  0
 44 45  2  0  0  0  0
 44 43  1  0  0  0  0
 45 46  1  0  0  0  0
 46 47  2  0  0  0  0
 48 47  1  0  0  0  0
 48 49  2  0  0  0  0
 49 51  1  0  0  0  0
 50 41  1  0  0  0  0
 52 54  1  0  0  0  0
 52 44  1  0  0  0  0
 53 52  1  0  0  0  0
 55 52  1  0  0  0  0
 56 57  1  0  0  0  0
 56 45  1  0  0  0  0
 58 56  1  0  0  0  0
 59 56  1  0  0  0  0
 60 42  1  0  0  0  0
 61 60  1  0  0  0  0
M  END
>  <MODEL>
5

>  <REMARK>
 VINA RESULT:    -7.978      2.851      4.982
 INTER + INTRA:          -9.560
 INTER:                  -8.791
 INTRA:                  -0.768
 UNBOUND:                 1.216
  Name = 
  8 active torsions:
  status: ('A' for Active; 'I' for Inactive)
    1  A    between atoms: C_1  and  C_2
    2  A    between atoms: C_6  and  N_7
    3  A    between atoms: N_10  and  C_11
    4  A    between atoms: C_11  and  C_12
    5  A    between atoms: C_12  and  C_13
    6  A    between atoms: C_15  and  O_16
    7  A    between atoms: C_18  and  C_19
    8  A    between atoms: C_20  and  C_21
                            x       y       z     vdW  Elec       q    Type
                         _______ _______ _______ _____ _____    ______ ____

>  <TORSDO>
F 8

$$$$
=
 OpenBabel07192307433D

 61 65  0  0  0  0  0  0  0  0999 V2000
   -1.2390   10.5210   18.6060 N   0  0  0  0  0  0  0  0  0  0  0  0
   -0.4010   11.6430   19.0910 C   0  0  0  0  0  0  0  0  0  0  0  0
    0.8560   11.0980   19.8040 C   0  0  0  0  0  0  0  0  0  0  0  0
    0.5530   10.3100   21.0270 N   0  0  0  0  0  0  0  0  0  0  0  0
   -0.7780    9.6640   20.9260 C   0  0  0  0  0  0  0  0  0  0  0  0
   -1.2530    9.3350   19.4930 C   0  0  0  0  0  0  0  0  0  0  0  0
   -0.9590   12.2900   19.7820 H   0  0  0  0  0  0  0  0  0  0  0  0
   -0.0880   12.2600   18.2390 H   0  0  0  0  0  0  0  0  0  0  0  0
    1.4120   10.4880   19.0800 H   0  0  0  0  0  0  0  0  0  0  0  0
    1.4960   11.9440   20.0800 H   0  0  0  0  0  0  0  0  0  0  0  0
   -1.4970   10.3600   21.3760 H   0  0  0  0  0  0  0  0  0  0  0  0
   -0.8300    8.7600   21.5440 H   0  0  0  0  0  0  0  0  0  0  0  0
   -0.5730    8.5920   19.0570 H   0  0  0  0  0  0  0  0  0  0  0  0
   -2.2400    8.8560   19.5280 H   0  0  0  0  0  0  0  0  0  0  0  0
   -3.8610   10.1650   14.2700 C   0  0  0  0  0  0  0  0  0  0  0  0
   -2.6350    9.6390   14.6440 C   0  0  0  0  0  0  0  0  0  0  0  0
   -2.1680    9.9000   15.9270 C   0  0  0  0  0  0  0  0  0  0  0  0
   -2.9230   10.6780   16.8230 C   0  0  0  0  0  0  0  0  0  0  0  0
   -2.4980   10.9750   18.1510 C   0  0  0  0  0  0  0  0  0  0  0  0
   -3.3320   11.7500   18.9700 C   0  0  0  0  0  0  0  0  0  0  0  0
   -4.5550   12.2160   18.4990 C   0  0  0  0  0  0  0  0  0  0  0  0
   -4.9540   11.9160   17.1970 C   0  0  0  0  0  0  0  0  0  0  0  0
   -4.1640   11.1570   16.3480 C   0  0  0  0  0  0  0  0  0  0  0  0
   -4.6200   10.9110   15.1060 N   0  0  0  0  0  0  0  0  0  0  0  0
   -2.0510    9.0340   13.9600 H   0  0  0  0  0  0  0  0  0  0  0  0
   -1.2110    9.4880   16.2380 H   0  0  0  0  0  0  0  0  0  0  0  0
   -3.0300   12.0110   19.9800 H   0  0  0  0  0  0  0  0  0  0  0  0
   -5.1960   12.8170   19.1370 H   0  0  0  0  0  0  0  0  0  0  0  0
   -5.9100   12.2840   16.8330 H   0  0  0  0  0  0  0  0  0  0  0  0
   -4.4100    9.8960   12.9020 C   0  0  0  0  0  0  0  0  0  0  0  0
   -4.2160   10.7470   12.2450 H   0  0  0  0  0  0  0  0  0  0  0  0
   -5.4880    9.7170   12.9510 H   0  0  0  0  0  0  0  0  0  0  0  0
   -3.9400    9.0100   12.4610 H   0  0  0  0  0  0  0  0  0  0  0  0
    1.6130    9.3230   21.3160 C   0  0  0  0  0  0  0  0  0  0  0  0
    2.3670    9.3530   20.5190 H   0  0  0  0  0  0  0  0  0  0  0  0
    2.1310    9.5980   22.2440 H   0  0  0  0  0  0  0  0  0  0  0  0
    1.1160    7.8680   21.4300 C   0  0  0  0  0  0  0  0  0  0  0  0
    0.0320    7.7960   21.2780 H   0  0  0  0  0  0  0  0  0  0  0  0
    1.2820    7.5310   22.4620 H   0  0  0  0  0  0  0  0  0  0  0  0
    1.8220    6.9170   20.4900 C   0  0  0  0  0  0  0  0  0  0  0  0
    1.7250    5.5400   20.6520 C   0  0  0  0  0  0  0  0  0  0  0  0
    2.3690    4.6830   19.7540 C   0  0  0  0  0  0  0  0  0  0  0  0
    3.1440    5.1650   18.6610 C   0  0  0  0  0  0  0  0  0  0  0  0
    3.8420    4.3750   17.6900 C   0  0  0  0  0  0  0  0  0  0  0  0
    4.5420    5.0360   16.6760 C   0  0  0  0  0  0  0  0  0  0  0  0
    4.5760    6.3810   16.6040 N   0  0  0  0  0  0  0  0  0  0  0  0
    3.9180    7.1350   17.5280 N   0  0  0  0  0  0  0  0  0  0  0  0
    3.2260    6.5640   18.5190 C   0  0  0  0  0  0  0  0  0  0  0  0
    2.5760    7.4030   19.4170 C   0  0  0  0  0  0  0  0  0  0  0  0
    1.1370    5.1410   21.4730 H   0  0  0  0  0  0  0  0  0  0  0  0
    2.6650    8.4780   19.2640 H   0  0  0  0  0  0  0  0  0  0  0  0
    3.8250    2.8700   17.7520 C   0  0  0  0  0  0  0  0  0  0  0  0
    2.9640    2.4760   17.2030 H   0  0  0  0  0  0  0  0  0  0  0  0
    4.7100    2.4100   17.3080 H   0  0  0  0  0  0  0  0  0  0  0  0
    3.7960    2.5360   18.7940 H   0  0  0  0  0  0  0  0  0  0  0  0
    5.3010    4.3250   15.5980 C   0  0  0  0  0  0  0  0  0  0  0  0
    5.0760    4.7520   14.6130 H   0  0  0  0  0  0  0  0  0  0  0  0
    5.0250    3.2660   15.5680 H   0  0  0  0  0  0  0  0  0  0  0  0
    6.3790    4.4210   15.7600 H   0  0  0  0  0  0  0  0  0  0  0  0
    2.2260    3.3330   19.9530 O   0  0  0  0  0  0  0  0  0  0  0  0
    1.3920    3.0400   19.5510 H   0  0  0  0  0  0  0  0  0  0  0  0
  1  2  1  0  0  0  0
  1  6  1  0  0  0  0
  2  7  1  0  0  0  0
  2  3  1  0  0  0  0
  3 10  1  0  0  0  0
  3  4  1  0  0  0  0
  4 34  1  0  0  0  0
  5  4  1  0  0  0  0
  5 11  1  0  0  0  0
  5 12  1  0  0  0  0
  6 14  1  0  0  0  0
  6  5  1  0  0  0  0
  8  2  1  0  0  0  0
  9  3  1  0  0  0  0
 13  6  1  0  0  0  0
 15 16  2  0  0  0  0
 15 24  1  0  0  0  0
 16 17  1  0  0  0  0
 17 26  1  0  0  0  0
 17 18  2  0  0  0  0
 18 19  1  0  0  0  0
 19  1  1  0  0  0  0
 19 20  2  0  0  0  0
 20 27  1  0  0  0  0
 21 20  1  0  0  0  0
 21 28  1  0  0  0  0
 22 21  2  0  0  0  0
 23 18  1  0  0  0  0
 23 22  1  0  0  0  0
 24 23  2  0  0  0  0
 25 16  1  0  0  0  0
 29 22  1  0  0  0  0
 30 32  1  0  0  0  0
 30 15  1  0  0  0  0
 31 30  1  0  0  0  0
 33 30  1  0  0  0  0
 34 37  1  0  0  0  0
 34 36  1  0  0  0  0
 35 34  1  0  0  0  0
 37 39  1  0  0  0  0
 38 37  1  0  0  0  0
 40 41  1  0  0  0  0
 40 37  1  0  0  0  0
 41 50  1  0  0  0  0
 42 60  1  0  0  0  0
 42 41  2  0  0  0  0
 43 42  1  0  0  0  0
 44 52  1  0  0  0  0
 44 43  2  0  0  0  0
 45 44  1  0  0  0  0
 46 45  2  0  0  0  0
 46 47  1  0  0  0  0
 47 48  2  0  0  0  0
 48 43  1  0  0  0  0
 48 49  1  0  0  0  0
 49 40  2  0  0  0  0
 51 49  1  0  0  0  0
 52 55  1  0  0  0  0
 53 52  1  0  0  0  0
 54 52  1  0  0  0  0
 56 59  1  0  0  0  0
 56 45  1  0  0  0  0
 57 56  1  0  0  0  0
 58 56  1  0  0  0  0
 61 60  1  0  0  0  0
M  END
>  <MODEL>
6

>  <REMARK>
 VINA RESULT:    -7.966      3.240      5.252
 INTER + INTRA:          -9.544
 INTER:                  -8.793
 INTRA:                  -0.751
 UNBOUND:                 1.216
  Name = 
  8 active torsions:
  status: ('A' for Active; 'I' for Inactive)
    1  A    between atoms: C_1  and  C_2
    2  A    between atoms: C_6  and  N_7
    3  A    between atoms: N_10  and  C_11
    4  A    between atoms: C_11  and  C_12
    5  A    between atoms: C_12  and  C_13
    6  A    between atoms: C_15  and  O_16
    7  A    between atoms: C_18  and  C_19
    8  A    between atoms: C_20  and  C_21
                            x       y       z     vdW  Elec       q    Type
                         _______ _______ _______ _____ _____    ______ ____

>  <TORSDO>
F 8

$$$$
=
 OpenBabel07192307433D

 61 65  0  0  0  0  0  0  0  0999 V2000
    1.9590    8.4350   19.6610 N   0  0  0  0  0  0  0  0  0  0  0  0
    1.3920    8.8870   18.3690 C   0  0  0  0  0  0  0  0  0  0  0  0
    0.9190   10.3530   18.4820 C   0  0  0  0  0  0  0  0  0  0  0  0
   -0.1840   10.5520   19.4580 N   0  0  0  0  0  0  0  0  0  0  0  0
   -0.1250    9.5380   20.5380 C   0  0  0  0  0  0  0  0  0  0  0  0
    1.2820    8.9850   20.8580 C   0  0  0  0  0  0  0  0  0  0  0  0
    0.5470    8.2570   18.0590 H   0  0  0  0  0  0  0  0  0  0  0  0
    2.1600    8.8190   17.5890 H   0  0  0  0  0  0  0  0  0  0  0  0
    1.7900   10.9650   18.7550 H   0  0  0  0  0  0  0  0  0  0  0  0
    0.5810   10.6890   17.4950 H   0  0  0  0  0  0  0  0  0  0  0  0
   -0.7590    8.7030   20.2160 H   0  0  0  0  0  0  0  0  0  0  0  0
   -0.5890    9.9100   21.4600 H   0  0  0  0  0  0  0  0  0  0  0  0
    1.9050    9.8030   21.2400 H   0  0  0  0  0  0  0  0  0  0  0  0
    1.2170    8.2510   21.6710 H   0  0  0  0  0  0  0  0  0  0  0  0
    4.7370    5.2290   16.8650 C   0  0  0  0  0  0  0  0  0  0  0  0
    4.6060    6.6080   16.8180 C   0  0  0  0  0  0  0  0  0  0  0  0
    3.7640    7.2240   17.7380 C   0  0  0  0  0  0  0  0  0  0  0  0
    3.0650    6.4650   18.6940 C   0  0  0  0  0  0  0  0  0  0  0  0
    2.1930    7.0400   19.6630 C   0  0  0  0  0  0  0  0  0  0  0  0
    1.5510    6.1960   20.5810 C   0  0  0  0  0  0  0  0  0  0  0  0
    1.7660    4.8210   20.5510 C   0  0  0  0  0  0  0  0  0  0  0  0
    2.6230    4.2760   19.5950 C   0  0  0  0  0  0  0  0  0  0  0  0
    3.2760    5.0680   18.6640 C   0  0  0  0  0  0  0  0  0  0  0  0
    4.0870    4.4660   17.7740 N   0  0  0  0  0  0  0  0  0  0  0  0
    5.1460    7.1990   16.0870 H   0  0  0  0  0  0  0  0  0  0  0  0
    3.6560    8.3050   17.7180 H   0  0  0  0  0  0  0  0  0  0  0  0
    0.8650    6.5990   21.3200 H   0  0  0  0  0  0  0  0  0  0  0  0
    1.2660    4.1720   21.2640 H   0  0  0  0  0  0  0  0  0  0  0  0
    2.7860    3.2010   19.5750 H   0  0  0  0  0  0  0  0  0  0  0  0
    5.6450    4.5260   15.9030 C   0  0  0  0  0  0  0  0  0  0  0  0
    5.0570    4.0120   15.1380 H   0  0  0  0  0  0  0  0  0  0  0  0
    6.2670    3.7960   16.4290 H   0  0  0  0  0  0  0  0  0  0  0  0
    6.3090    5.2390   15.4030 H   0  0  0  0  0  0  0  0  0  0  0  0
   -0.1900   11.9240   20.0020 C   0  0  0  0  0  0  0  0  0  0  0  0
   -1.2080   12.1880   20.3180 H   0  0  0  0  0  0  0  0  0  0  0  0
    0.4360   11.9680   20.9030 H   0  0  0  0  0  0  0  0  0  0  0  0
    0.2820   13.0060   19.0100 C   0  0  0  0  0  0  0  0  0  0  0  0
   -0.3920   13.8720   19.0030 H   0  0  0  0  0  0  0  0  0  0  0  0
    0.2200   12.5890   17.9960 H   0  0  0  0  0  0  0  0  0  0  0  0
    1.6990   13.4710   19.2570 C   0  0  0  0  0  0  0  0  0  0  0  0
    2.5210   13.8660   18.2080 C   0  0  0  0  0  0  0  0  0  0  0  0
    3.8200   14.3140   18.4680 C   0  0  0  0  0  0  0  0  0  0  0  0
    4.3570   14.3780   19.7850 C   0  0  0  0  0  0  0  0  0  0  0  0
    5.6690   14.8170   20.1560 C   0  0  0  0  0  0  0  0  0  0  0  0
    6.0090   14.8210   21.5130 C   0  0  0  0  0  0  0  0  0  0  0  0
    5.1390   14.4180   22.4580 N   0  0  0  0  0  0  0  0  0  0  0  0
    3.8910   13.9950   22.1090 N   0  0  0  0  0  0  0  0  0  0  0  0
    3.5040   13.9720   20.8300 C   0  0  0  0  0  0  0  0  0  0  0  0
    2.2120   13.5340   20.5570 C   0  0  0  0  0  0  0  0  0  0  0  0
    2.1390   13.8330   17.1920 H   0  0  0  0  0  0  0  0  0  0  0  0
    1.5890   13.2350   21.3980 H   0  0  0  0  0  0  0  0  0  0  0  0
    6.6630   15.2670   19.1170 C   0  0  0  0  0  0  0  0  0  0  0  0
    7.4260   14.4980   18.9630 H   0  0  0  0  0  0  0  0  0  0  0  0
    6.2110   15.4520   18.1400 H   0  0  0  0  0  0  0  0  0  0  0  0
    7.1280   16.2100   19.4220 H   0  0  0  0  0  0  0  0  0  0  0  0
    7.3440   15.2670   22.0280 C   0  0  0  0  0  0  0  0  0  0  0  0
    7.8670   15.8770   21.2820 H   0  0  0  0  0  0  0  0  0  0  0  0
    7.9770   14.4030   22.2510 H   0  0  0  0  0  0  0  0  0  0  0  0
    7.2230   15.8780   22.9270 H   0  0  0  0  0  0  0  0  0  0  0  0
    4.5810   14.7060   17.3950 O   0  0  0  0  0  0  0  0  0  0  0  0
    4.0720   14.5690   16.5790 H   0  0  0  0  0  0  0  0  0  0  0  0
  1 19  1  0  0  0  0
  1  6  1  0  0  0  0
  2  3  1  0  0  0  0
  2  1  1  0  0  0  0
  3  9  1  0  0  0  0
  3  4  1  0  0  0  0
  4 34  1  0  0  0  0
  4  5  1  0  0  0  0
  5  6  1  0  0  0  0
  5 12  1  0  0  0  0
  6 13  1  0  0  0  0
  6 14  1  0  0  0  0
  7  2  1  0  0  0  0
  8  2  1  0  0  0  0
 10  3  1  0  0  0  0
 11  5  1  0  0  0  0
 15 24  1  0  0  0  0
 16 15  2  0  0  0  0
 16 17  1  0  0  0  0
 17 18  2  0  0  0  0
 18 19  1  0  0  0  0
 19 20  2  0  0  0  0
 20 27  1  0  0  0  0
 21 20  1  0  0  0  0
 21 28  1  0  0  0  0
 22 21  2  0  0  0  0
 23 18  1  0  0  0  0
 23 22  1  0  0  0  0
 24 23  2  0  0  0  0
 25 16  1  0  0  0  0
 26 17  1  0  0  0  0
 29 22  1  0  0  0  0
 30 32  1  0  0  0  0
 30 15  1  0  0  0  0
 31 30  1  0  0  0  0
 33 30  1  0  0  0  0
 34 35  1  0  0  0  0
 34 36  1  0  0  0  0
 37 40  1  0  0  0  0
 37 34  1  0  0  0  0
 38 37  1  0  0  0  0
 39 37  1  0  0  0  0
 40 49  1  0  0  0  0
 41 42  1  0  0  0  0
 41 40  2  0  0  0  0
 42 43  2  0  0  0  0
 43 44  1  0  0  0  0
 43 48  1  0  0  0  0
 44 45  2  0  0  0  0
 45 56  1  0  0  0  0
 45 46  1  0  0  0  0
 47 46  2  0  0  0  0
 48 47  1  0  0  0  0
 49 48  2  0  0  0  0
 49 51  1  0  0  0  0
 50 41  1  0  0  0  0
 52 55  1  0  0  0  0
 52 44  1  0  0  0  0
 53 52  1  0  0  0  0
 54 52  1  0  0  0  0
 56 58  1  0  0  0  0
 56 59  1  0  0  0  0
 57 56  1  0  0  0  0
 60 42  1  0  0  0  0
 61 60  1  0  0  0  0
M  END
>  <MODEL>
7

>  <REMARK>
 VINA RESULT:    -7.871      4.206      9.590
 INTER + INTRA:          -9.416
 INTER:                  -9.358
 INTRA:                  -0.057
 UNBOUND:                 1.216
  Name = 
  8 active torsions:
  status: ('A' for Active; 'I' for Inactive)
    1  A    between atoms: C_1  and  C_2
    2  A    between atoms: C_6  and  N_7
    3  A    between atoms: N_10  and  C_11
    4  A    between atoms: C_11  and  C_12
    5  A    between atoms: C_12  and  C_13
    6  A    between atoms: C_15  and  O_16
    7  A    between atoms: C_18  and  C_19
    8  A    between atoms: C_20  and  C_21
                            x       y       z     vdW  Elec       q    Type
                         _______ _______ _______ _____ _____    ______ ____

>  <TORSDO>
F 8

$$$$
=
 OpenBabel07192307433D

 61 65  0  0  0  0  0  0  0  0999 V2000
    2.4120    7.1430   19.7490 N   0  0  0  0  0  0  0  0  0  0  0  0
    1.8350    8.0420   18.7220 C   0  0  0  0  0  0  0  0  0  0  0  0
    1.5970    9.4460   19.3190 C   0  0  0  0  0  0  0  0  0  0  0  0
    0.6030    9.4650   20.4240 N   0  0  0  0  0  0  0  0  0  0  0  0
    0.5800    8.1660   21.1380 C   0  0  0  0  0  0  0  0  0  0  0  0
    1.9050    7.3720   21.1230 C   0  0  0  0  0  0  0  0  0  0  0  0
    0.8860    7.6480   18.3320 H   0  0  0  0  0  0  0  0  0  0  0  0
    2.5310    8.1260   17.8780 H   0  0  0  0  0  0  0  0  0  0  0  0
    2.5660    9.8300   19.6660 H   0  0  0  0  0  0  0  0  0  0  0  0
    1.2490   10.1110   18.5200 H   0  0  0  0  0  0  0  0  0  0  0  0
   -0.1930    7.5570   20.6520 H   0  0  0  0  0  0  0  0  0  0  0  0
    0.2390    8.2860   22.1730 H   0  0  0  0  0  0  0  0  0  0  0  0
    2.6680    7.9480   21.6610 H   0  0  0  0  0  0  0  0  0  0  0  0
    1.7850    6.4350   21.6810 H   0  0  0  0  0  0  0  0  0  0  0  0
    5.0060    4.5230   16.2540 C   0  0  0  0  0  0  0  0  0  0  0  0
    5.0890    5.8480   16.6550 C   0  0  0  0  0  0  0  0  0  0  0  0
    4.2410    6.2870   17.6650 C   0  0  0  0  0  0  0  0  0  0  0  0
    3.3220    5.4080   18.2670 C   0  0  0  0  0  0  0  0  0  0  0  0
    2.4320    5.8000   19.3090 C   0  0  0  0  0  0  0  0  0  0  0  0
    1.5620    4.8420   19.8500 C   0  0  0  0  0  0  0  0  0  0  0  0
    1.5720    3.5310   19.3840 C   0  0  0  0  0  0  0  0  0  0  0  0
    2.4490    3.1660   18.3640 C   0  0  0  0  0  0  0  0  0  0  0  0
    3.3250    4.0760   17.7940 C   0  0  0  0  0  0  0  0  0  0  0  0
    4.1410    3.6460   16.8140 N   0  0  0  0  0  0  0  0  0  0  0  0
    5.7980    6.5290   16.1990 H   0  0  0  0  0  0  0  0  0  0  0  0
    4.2990    7.3210   17.9950 H   0  0  0  0  0  0  0  0  0  0  0  0
    0.8580    5.1120   20.6310 H   0  0  0  0  0  0  0  0  0  0  0  0
    0.8950    2.7940   19.8070 H   0  0  0  0  0  0  0  0  0  0  0  0
    2.4520    2.1410   18.0030 H   0  0  0  0  0  0  0  0  0  0  0  0
    5.9110    4.0030   15.1800 C   0  0  0  0  0  0  0  0  0  0  0  0
    6.1130    2.9410   15.3410 H   0  0  0  0  0  0  0  0  0  0  0  0
    6.8570    4.5530   15.1780 H   0  0  0  0  0  0  0  0  0  0  0  0
    5.4500    4.1180   14.1930 H   0  0  0  0  0  0  0  0  0  0  0  0
    0.8400   10.5890   21.3510 C   0  0  0  0  0  0  0  0  0  0  0  0
    1.0160   10.1980   22.3620 H   0  0  0  0  0  0  0  0  0  0  0  0
    1.7540   11.1230   21.0600 H   0  0  0  0  0  0  0  0  0  0  0  0
   -0.3240   11.5970   21.4420 C   0  0  0  0  0  0  0  0  0  0  0  0
    0.0390   12.6260   21.5540 H   0  0  0  0  0  0  0  0  0  0  0  0
   -0.8840   11.3900   22.3640 H   0  0  0  0  0  0  0  0  0  0  0  0
   -1.2760   11.5220   20.2700 C   0  0  0  0  0  0  0  0  0  0  0  0
   -2.4740   12.2270   20.2690 C   0  0  0  0  0  0  0  0  0  0  0  0
   -3.3260   12.1580   19.1610 C   0  0  0  0  0  0  0  0  0  0  0  0
   -3.0210   11.3750   18.0120 C   0  0  0  0  0  0  0  0  0  0  0  0
   -3.8220   11.2350   16.8320 C   0  0  0  0  0  0  0  0  0  0  0  0
   -3.3430   10.4270   15.7960 C   0  0  0  0  0  0  0  0  0  0  0  0
   -2.1650    9.7820   15.8930 N   0  0  0  0  0  0  0  0  0  0  0  0
   -1.4020    9.9080   17.0150 N   0  0  0  0  0  0  0  0  0  0  0  0
   -1.8010   10.6710   18.0380 C   0  0  0  0  0  0  0  0  0  0  0  0
   -0.9630   10.7540   19.1440 C   0  0  0  0  0  0  0  0  0  0  0  0
   -2.7330   12.8370   21.1290 H   0  0  0  0  0  0  0  0  0  0  0  0
   -0.0280   10.1950   19.1160 H   0  0  0  0  0  0  0  0  0  0  0  0
   -5.1470   11.9410   16.7030 C   0  0  0  0  0  0  0  0  0  0  0  0
   -5.8340   11.6060   17.4850 H   0  0  0  0  0  0  0  0  0  0  0  0
   -5.0700   13.0250   16.8050 H   0  0  0  0  0  0  0  0  0  0  0  0
   -5.5780   11.7570   15.7130 H   0  0  0  0  0  0  0  0  0  0  0  0
   -4.0810   10.2090   14.5100 C   0  0  0  0  0  0  0  0  0  0  0  0
   -5.1580   10.1050   14.6900 H   0  0  0  0  0  0  0  0  0  0  0  0
   -3.7390    9.2920   14.0220 H   0  0  0  0  0  0  0  0  0  0  0  0
   -3.9410   11.0610   13.8390 H   0  0  0  0  0  0  0  0  0  0  0  0
   -4.4870   12.8860   19.2100 O   0  0  0  0  0  0  0  0  0  0  0  0
   -4.3440   13.7410   18.7710 H   0  0  0  0  0  0  0  0  0  0  0  0
  1  6  1  0  0  0  0
  2  3  1  0  0  0  0
  2  1  1  0  0  0  0
  3  9  1  0  0  0  0
  3  4  1  0  0  0  0
  4  5  1  0  0  0  0
  4 34  1  0  0  0  0
  5 12  1  0  0  0  0
  6  5  1  0  0  0  0
  6 13  1  0  0  0  0
  6 14  1  0  0  0  0
  7  2  1  0  0  0  0
  8  2  1  0  0  0  0
 10  3  1  0  0  0  0
 11  5  1  0  0  0  0
 15 16  2  0  0  0  0
 15 24  1  0  0  0  0
 16 17  1  0  0  0  0
 17 26  1  0  0  0  0
 17 18  2  0  0  0  0
 18 19  1  0  0  0  0
 19  1  1  0  0  0  0
 19 20  2  0  0  0  0
 20 27  1  0  0  0  0
 21 28  1  0  0  0  0
 21 20  1  0  0  0  0
 22 21  2  0  0  0  0
 23 18  1  0  0  0  0
 23 22  1  0  0  0  0
 24 23  2  0  0  0  0
 25 16  1  0  0  0  0
 29 22  1  0  0  0  0
 30 31  1  0  0  0  0
 30 15  1  0  0  0  0
 32 30  1  0  0  0  0
 33 30  1  0  0  0  0
 34 37  1  0  0  0  0
 34 35  1  0  0  0  0
 36 34  1  0  0  0  0
 37 38  1  0  0  0  0
 37 39  1  0  0  0  0
 40 37  1  0  0  0  0
 41 40  1  0  0  0  0
 41 50  1  0  0  0  0
 42 60  1  0  0  0  0
 42 41  2  0  0  0  0
 43 48  1  0  0  0  0
 43 42  1  0  0  0  0
 44 43  2  0  0  0  0
 45 46  2  0  0  0  0
 45 44  1  0  0  0  0
 46 47  1  0  0  0  0
 47 48  2  0  0  0  0
 48 49  1  0  0  0  0
 49 40  2  0  0  0  0
 51 49  1  0  0  0  0
 52 54  1  0  0  0  0
 52 44  1  0  0  0  0
 52 53  1  0  0  0  0
 55 52  1  0  0  0  0
 56 57  1  0  0  0  0
 56 45  1  0  0  0  0
 58 56  1  0  0  0  0
 59 56  1  0  0  0  0
 61 60  1  0  0  0  0
M  END
>  <MODEL>
8

>  <REMARK>
 VINA RESULT:    -7.783      3.378      9.846
 INTER + INTRA:          -9.296
 INTER:                 -10.861
 INTRA:                   1.565
 UNBOUND:                 1.216
  Name = 
  8 active torsions:
  status: ('A' for Active; 'I' for Inactive)
    1  A    between atoms: C_1  and  C_2
    2  A    between atoms: C_6  and  N_7
    3  A    between atoms: N_10  and  C_11
    4  A    between atoms: C_11  and  C_12
    5  A    between atoms: C_12  and  C_13
    6  A    between atoms: C_15  and  O_16
    7  A    between atoms: C_18  and  C_19
    8  A    between atoms: C_20  and  C_21
                            x       y       z     vdW  Elec       q    Type
                         _______ _______ _______ _____ _____    ______ ____

>  <TORSDO>
F 8

$$$$
=
 OpenBabel07192307433D

 61 65  0  0  0  0  0  0  0  0999 V2000
    2.2950    6.5260   19.5350 N   0  0  0  0  0  0  0  0  0  0  0  0
    1.5860    6.0140   20.7310 C   0  0  0  0  0  0  0  0  0  0  0  0
    1.7960    4.4880   20.8590 C   0  0  0  0  0  0  0  0  0  0  0  0
    1.2220    3.7100   19.7300 N   0  0  0  0  0  0  0  0  0  0  0  0
    1.2020    4.5170   18.4860 C   0  0  0  0  0  0  0  0  0  0  0  0
    2.2970    5.6020   18.3770 C   0  0  0  0  0  0  0  0  0  0  0  0
    0.5100    6.2290   20.6830 H   0  0  0  0  0  0  0  0  0  0  0  0
    1.9830    6.5040   21.6280 H   0  0  0  0  0  0  0  0  0  0  0  0
    2.8750    4.3060   20.9430 H   0  0  0  0  0  0  0  0  0  0  0  0
    1.3330    4.1490   21.7920 H   0  0  0  0  0  0  0  0  0  0  0  0
    0.2230    5.0100   18.4500 H   0  0  0  0  0  0  0  0  0  0  0  0
    1.2330    3.8770   17.5960 H   0  0  0  0  0  0  0  0  0  0  0  0
    3.2780    5.1130   18.3500 H   0  0  0  0  0  0  0  0  0  0  0  0
    2.1990    6.1340   17.4220 H   0  0  0  0  0  0  0  0  0  0  0  0
   -0.2360   10.1770   22.0010 C   0  0  0  0  0  0  0  0  0  0  0  0
    0.1070    8.8870   22.3740 C   0  0  0  0  0  0  0  0  0  0  0  0
    0.8270    8.1070   21.4760 C   0  0  0  0  0  0  0  0  0  0  0  0
    1.2000    8.6170   20.2190 C   0  0  0  0  0  0  0  0  0  0  0  0
    1.9420    7.8680   19.2600 C   0  0  0  0  0  0  0  0  0  0  0  0
    2.2750    8.4730   18.0400 C   0  0  0  0  0  0  0  0  0  0  0  0
    1.8940    9.7840   17.7710 C   0  0  0  0  0  0  0  0  0  0  0  0
    1.1680   10.5020   18.7210 C   0  0  0  0  0  0  0  0  0  0  0  0
    0.8120    9.9470   19.9400 C   0  0  0  0  0  0  0  0  0  0  0  0
    0.1120   10.7050   20.8040 N   0  0  0  0  0  0  0  0  0  0  0  0
   -0.1730    8.4900   23.3440 H   0  0  0  0  0  0  0  0  0  0  0  0
    1.1090    7.0960   21.7580 H   0  0  0  0  0  0  0  0  0  0  0  0
    2.8220    7.9240   17.2800 H   0  0  0  0  0  0  0  0  0  0  0  0
    2.1530   10.2480   16.8240 H   0  0  0  0  0  0  0  0  0  0  0  0
    0.8720   11.5260   18.5060 H   0  0  0  0  0  0  0  0  0  0  0  0
   -0.9980   11.0570   22.9430 C   0  0  0  0  0  0  0  0  0  0  0  0
   -1.6780   10.4550   23.5530 H   0  0  0  0  0  0  0  0  0  0  0  0
   -1.5760   11.8020   22.3880 H   0  0  0  0  0  0  0  0  0  0  0  0
   -0.3170   11.5890   23.6160 H   0  0  0  0  0  0  0  0  0  0  0  0
    1.9300    2.4300   19.5350 C   0  0  0  0  0  0  0  0  0  0  0  0
    1.4210    1.6400   20.1010 H   0  0  0  0  0  0  0  0  0  0  0  0
    1.8800    2.1370   18.4780 H   0  0  0  0  0  0  0  0  0  0  0  0
    3.4060    2.4430   19.9830 C   0  0  0  0  0  0  0  0  0  0  0  0
    3.8000    1.4270   20.1080 H   0  0  0  0  0  0  0  0  0  0  0  0
    3.4550    2.8930   20.9830 H   0  0  0  0  0  0  0  0  0  0  0  0
    4.3080    3.2240   19.0550 C   0  0  0  0  0  0  0  0  0  0  0  0
    5.1200    4.2470   19.5320 C   0  0  0  0  0  0  0  0  0  0  0  0
    5.9620    4.9380   18.6550 C   0  0  0  0  0  0  0  0  0  0  0  0
    6.0250    4.6420   17.2640 C   0  0  0  0  0  0  0  0  0  0  0  0
    6.8490    5.2880   16.2860 C   0  0  0  0  0  0  0  0  0  0  0  0
    6.7790    4.8440   14.9610 C   0  0  0  0  0  0  0  0  0  0  0  0
    5.9580    3.8400   14.5970 N   0  0  0  0  0  0  0  0  0  0  0  0
    5.1700    3.2260   15.5230 N   0  0  0  0  0  0  0  0  0  0  0  0
    5.1940    3.6010   16.8060 C   0  0  0  0  0  0  0  0  0  0  0  0
    4.3650    2.9190   17.6910 C   0  0  0  0  0  0  0  0  0  0  0  0
    5.0980    4.4930   20.5890 H   0  0  0  0  0  0  0  0  0  0  0  0
    3.7430    2.1190   17.2910 H   0  0  0  0  0  0  0  0  0  0  0  0
    7.7700    6.4170   16.6670 C   0  0  0  0  0  0  0  0  0  0  0  0
    8.1760    6.8960   15.7710 H   0  0  0  0  0  0  0  0  0  0  0  0
    7.2740    7.2040   17.2390 H   0  0  0  0  0  0  0  0  0  0  0  0
    8.5820    6.0450   17.3000 H   0  0  0  0  0  0  0  0  0  0  0  0
    7.5960    5.4300   13.8500 C   0  0  0  0  0  0  0  0  0  0  0  0
    7.4340    4.8820   12.9150 H   0  0  0  0  0  0  0  0  0  0  0  0
    8.6630    5.3710   14.0860 H   0  0  0  0  0  0  0  0  0  0  0  0
    7.3130    6.4720   13.6750 H   0  0  0  0  0  0  0  0  0  0  0  0
    6.7520    5.9280   19.1850 O   0  0  0  0  0  0  0  0  0  0  0  0
    6.8470    5.7810   20.1400 H   0  0  0  0  0  0  0  0  0  0  0  0
  1  2  1  0  0  0  0
  2  3  1  0  0  0  0
  2  8  1  0  0  0  0
  3  9  1  0  0  0  0
  3 10  1  0  0  0  0
  4  3  1  0  0  0  0
  5  4  1  0  0  0  0
  6  5  1  0  0  0  0
  6  1  1  0  0  0  0
  7  2  1  0  0  0  0
 11  5  1  0  0  0  0
 12  5  1  0  0  0  0
 13  6  1  0  0  0  0
 14  6  1  0  0  0  0
 15 16  1  0  0  0  0
 15 30  1  0  0  0  0
 16 25  1  0  0  0  0
 17 26  1  0  0  0  0
 17 16  2  0  0  0  0
 18 17  1  0  0  0  0
 19  1  1  0  0  0  0
 19 18  2  0  0  0  0
 20 19  1  0  0  0  0
 21 20  2  0  0  0  0
 21 22  1  0  0  0  0
 22 23  2  0  0  0  0
 23 18  1  0  0  0  0
 23 24  1  0  0  0  0
 24 15  2  0  0  0  0
 27 20  1  0  0  0  0
 28 21  1  0  0  0  0
 29 22  1  0  0  0  0
 30 31  1  0  0  0  0
 30 33  1  0  0  0  0
 32 30  1  0  0  0  0
 34  4  1  0  0  0  0
 34 37  1  0  0  0  0
 34 35  1  0  0  0  0
 36 34  1  0  0  0  0
 37 38  1  0  0  0  0
 37 39  1  0  0  0  0
 40 41  1  0  0  0  0
 40 37  1  0  0  0  0
 41 50  1  0  0  0  0
 42 60  1  0  0  0  0
 42 41  2  0  0  0  0
 43 42  1  0  0  0  0
 44 52  1  0  0  0  0
 44 43  2  0  0  0  0
 45 44  1  0  0  0  0
 46 45  2  0  0  0  0
 46 47  1  0  0  0  0
 47 48  2  0  0  0  0
 48 43  1  0  0  0  0
 48 49  1  0  0  0  0
 49 40  2  0  0  0  0
 51 49  1  0  0  0  0
 52 54  1  0  0  0  0
 52 55  1  0  0  0  0
 53 52  1  0  0  0  0
 56 58  1  0  0  0  0
 56 45  1  0  0  0  0
 57 56  1  0  0  0  0
 59 56  1  0  0  0  0
 60 61  1  0  0  0  0
M  END
>  <MODEL>
9

>  <REMARK>
 VINA RESULT:    -7.755      2.863      5.840
 INTER + INTRA:          -9.259
 INTER:                 -10.547
 INTRA:                   1.288
 UNBOUND:                 1.216
  Name = 
  8 active torsions:
  status: ('A' for Active; 'I' for Inactive)
    1  A    between atoms: C_1  and  C_2
    2  A    between atoms: C_6  and  N_7
    3  A    between atoms: N_10  and  C_11
    4  A    between atoms: C_11  and  C_12
    5  A    between atoms: C_12  and  C_13
    6  A    between atoms: C_15  and  O_16
    7  A    between atoms: C_18  and  C_19
    8  A    between atoms: C_20  and  C_21
                            x       y       z     vdW  Elec       q    Type
                         _______ _______ _______ _____ _____    ______ ____

>  <TORSDO>
F 8

$$$$
=
 OpenBabel07192307433D

 61 65  0  0  0  0  0  0  0  0999 V2000
   -0.5460   11.7180   20.2590 N   0  0  0  0  0  0  0  0  0  0  0  0
   -0.4400   10.3440   20.8040 C   0  0  0  0  0  0  0  0  0  0  0  0
    0.8740    9.6840   20.3310 C   0  0  0  0  0  0  0  0  0  0  0  0
    0.9550    9.5030   18.8580 N   0  0  0  0  0  0  0  0  0  0  0  0
    0.1600   10.5370   18.1530 C   0  0  0  0  0  0  0  0  0  0  0  0
    0.0070   11.8830   18.8940 C   0  0  0  0  0  0  0  0  0  0  0  0
   -1.2910    9.7220   20.4910 H   0  0  0  0  0  0  0  0  0  0  0  0
   -0.4440   10.3840   21.9000 H   0  0  0  0  0  0  0  0  0  0  0  0
    1.7060   10.3050   20.6890 H   0  0  0  0  0  0  0  0  0  0  0  0
    0.9660    8.7040   20.8120 H   0  0  0  0  0  0  0  0  0  0  0  0
   -0.8400   10.1110   18.0010 H   0  0  0  0  0  0  0  0  0  0  0  0
    0.5480   10.7180   17.1430 H   0  0  0  0  0  0  0  0  0  0  0  0
    0.9960   12.3450   18.9960 H   0  0  0  0  0  0  0  0  0  0  0  0
   -0.5890   12.5770   18.2880 H   0  0  0  0  0  0  0  0  0  0  0  0
   -2.7150   14.4620   23.9430 C   0  0  0  0  0  0  0  0  0  0  0  0
   -1.4160   14.0040   23.7860 C   0  0  0  0  0  0  0  0  0  0  0  0
   -1.1070   13.2720   22.6450 C   0  0  0  0  0  0  0  0  0  0  0  0
   -2.0890   13.0050   21.6730 C   0  0  0  0  0  0  0  0  0  0  0  0
   -1.8290   12.2660   20.4830 C   0  0  0  0  0  0  0  0  0  0  0  0
   -2.8760   12.0650   19.5710 C   0  0  0  0  0  0  0  0  0  0  0  0
   -4.1430   12.5840   19.8190 C   0  0  0  0  0  0  0  0  0  0  0  0
   -4.3780   13.3040   20.9890 C   0  0  0  0  0  0  0  0  0  0  0  0
   -3.3780   13.5260   21.9230 C   0  0  0  0  0  0  0  0  0  0  0  0
   -3.6840   14.2320   23.0280 N   0  0  0  0  0  0  0  0  0  0  0  0
   -0.6540   14.2100   24.5290 H   0  0  0  0  0  0  0  0  0  0  0  0
   -0.0910   12.9120   22.5040 H   0  0  0  0  0  0  0  0  0  0  0  0
   -2.7180   11.4900   18.6640 H   0  0  0  0  0  0  0  0  0  0  0  0
   -4.9500   12.4240   19.1090 H   0  0  0  0  0  0  0  0  0  0  0  0
   -5.3700   13.7060   21.1790 H   0  0  0  0  0  0  0  0  0  0  0  0
   -3.0890   15.2670   25.1500 C   0  0  0  0  0  0  0  0  0  0  0  0
   -2.6320   14.8370   26.0450 H   0  0  0  0  0  0  0  0  0  0  0  0
   -4.1750   15.2880   25.2740 H   0  0  0  0  0  0  0  0  0  0  0  0
   -2.7390   16.3000   25.0520 H   0  0  0  0  0  0  0  0  0  0  0  0
    2.3540    9.4810   18.3880 C   0  0  0  0  0  0  0  0  0  0  0  0
    2.5870   10.4310   17.8880 H   0  0  0  0  0  0  0  0  0  0  0  0
    3.0330    9.4070   19.2480 H   0  0  0  0  0  0  0  0  0  0  0  0
    2.6750    8.3450   17.3950 C   0  0  0  0  0  0  0  0  0  0  0  0
    3.5330    8.5940   16.7580 H   0  0  0  0  0  0  0  0  0  0  0  0
    1.8270    8.2450   16.7050 H   0  0  0  0  0  0  0  0  0  0  0  0
    2.9140    7.0110   18.0650 C   0  0  0  0  0  0  0  0  0  0  0  0
    4.0630    6.2730   17.8110 C   0  0  0  0  0  0  0  0  0  0  0  0
    4.2700    5.0530   18.4630 C   0  0  0  0  0  0  0  0  0  0  0  0
    3.3330    4.5150   19.3910 C   0  0  0  0  0  0  0  0  0  0  0  0
    3.4480    3.2790   20.1080 C   0  0  0  0  0  0  0  0  0  0  0  0
    2.4230    2.9260   20.9910 C   0  0  0  0  0  0  0  0  0  0  0  0
    1.3440    3.7140   21.1700 N   0  0  0  0  0  0  0  0  0  0  0  0
    1.2290    4.8870   20.4870 N   0  0  0  0  0  0  0  0  0  0  0  0
    2.1770    5.2830   19.6320 C   0  0  0  0  0  0  0  0  0  0  0  0
    1.9880    6.4970   18.9790 C   0  0  0  0  0  0  0  0  0  0  0  0
    4.7990    6.6580   17.1120 H   0  0  0  0  0  0  0  0  0  0  0  0
    1.0810    7.0570   19.2010 H   0  0  0  0  0  0  0  0  0  0  0  0
    4.6410    2.3790   19.9210 C   0  0  0  0  0  0  0  0  0  0  0  0
    4.7460    1.7040   20.7750 H   0  0  0  0  0  0  0  0  0  0  0  0
    4.5680    1.7450   19.0350 H   0  0  0  0  0  0  0  0  0  0  0  0
    5.5490    2.9770   19.7940 H   0  0  0  0  0  0  0  0  0  0  0  0
    2.4310    1.6680   21.8050 C   0  0  0  0  0  0  0  0  0  0  0  0
    2.1940    0.7980   21.1820 H   0  0  0  0  0  0  0  0  0  0  0  0
    1.6800    1.7190   22.5990 H   0  0  0  0  0  0  0  0  0  0  0  0
    3.4200    1.5000   22.2410 H   0  0  0  0  0  0  0  0  0  0  0  0
    5.4290    4.3740   18.1850 O   0  0  0  0  0  0  0  0  0  0  0  0
    5.6790    4.5390   17.2610 H   0  0  0  0  0  0  0  0  0  0  0  0
  1 19  1  0  0  0  0
  1  2  1  0  0  0  0
  2  8  1  0  0  0  0
  3  9  1  0  0  0  0
  3  2  1  0  0  0  0
  3 10  1  0  0  0  0
  4  3  1  0  0  0  0
  5  4  1  0  0  0  0
  5  6  1  0  0  0  0
  6 13  1  0  0  0  0
  6  1  1  0  0  0  0
  7  2  1  0  0  0  0
 11  5  1  0  0  0  0
 12  5  1  0  0  0  0
 14  6  1  0  0  0  0
 15 30  1  0  0  0  0
 16 15  1  0  0  0  0
 16 25  1  0  0  0  0
 17 16  2  0  0  0  0
 18 23  1  0  0  0  0
 18 17  1  0  0  0  0
 19 18  2  0  0  0  0
 20 21  2  0  0  0  0
 20 19  1  0  0  0  0
 21 22  1  0  0  0  0
 22 29  1  0  0  0  0
 22 23  2  0  0  0  0
 23 24  1  0  0  0  0
 24 15  2  0  0  0  0
 26 17  1  0  0  0  0
 27 20  1  0  0  0  0
 28 21  1  0  0  0  0
 30 32  1  0  0  0  0
 30 31  1  0  0  0  0
 33 30  1  0  0  0  0
 34  4  1  0  0  0  0
 34 36  1  0  0  0  0
 35 34  1  0  0  0  0
 37 40  1  0  0  0  0
 37 34  1  0  0  0  0
 38 37  1  0  0  0  0
 39 37  1  0  0  0  0
 40 49  1  0  0  0  0
 41 40  2  0  0  0  0
 41 42  1  0  0  0  0
 42 43  2  0  0  0  0
 43 48  1  0  0  0  0
 43 44  1  0  0  0  0
 44 45  2  0  0  0  0
 45 46  1  0  0  0  0
 45 56  1  0  0  0  0
 47 46  2  0  0  0  0
 48 47  1  0  0  0  0
 49 51  1  0  0  0  0
 49 48  2  0  0  0  0
 50 41  1  0  0  0  0
 52 44  1  0  0  0  0
 52 53  1  0  0  0  0
 54 52  1  0  0  0  0
 55 52  1  0  0  0  0
 56 59  1  0  0  0  0
 56 58  1  0  0  0  0
 57 56  1  0  0  0  0
 60 42  1  0  0  0  0
 61 60  1  0  0  0  0
M  END
>  <MODEL>
10

>  <REMARK>
 VINA RESULT:    -7.708      1.381      1.618
 INTER + INTRA:          -9.195
 INTER:                  -8.872
 INTRA:                  -0.323
 UNBOUND:                 1.216
  Name = 
  8 active torsions:
  status: ('A' for Active; 'I' for Inactive)
    1  A    between atoms: C_1  and  C_2
    2  A    between atoms: C_6  and  N_7
    3  A    between atoms: N_10  and  C_11
    4  A    between atoms: C_11  and  C_12
    5  A    between atoms: C_12  and  C_13
    6  A    between atoms: C_15  and  O_16
    7  A    between atoms: C_18  and  C_19
    8  A    between atoms: C_20  and  C_21
                            x       y       z     vdW  Elec       q    Type
                         _______ _______ _______ _____ _____    ______ ____

>  <TORSDO>
F 8

$$$$
=
 OpenBabel07192307433D

 61 65  0  0  0  0  0  0  0  0999 V2000
   -1.7350   11.5120   20.2050 N   0  0  0  0  0  0  0  0  0  0  0  0
   -2.0310   10.8050   18.9370 C   0  0  0  0  0  0  0  0  0  0  0  0
   -0.7860   10.0260   18.4600 C   0  0  0  0  0  0  0  0  0  0  0  0
    0.3740   10.8970   18.1330 N   0  0  0  0  0  0  0  0  0  0  0  0
    0.3420   12.1450   18.9340 C   0  0  0  0  0  0  0  0  0  0  0  0
   -0.3530   12.0380   20.3090 C   0  0  0  0  0  0  0  0  0  0  0  0
   -2.3440   11.5060   18.1510 H   0  0  0  0  0  0  0  0  0  0  0  0
   -2.8540   10.0970   19.0980 H   0  0  0  0  0  0  0  0  0  0  0  0
   -0.5190    9.3090   19.2470 H   0  0  0  0  0  0  0  0  0  0  0  0
   -1.0550    9.4490   17.5680 H   0  0  0  0  0  0  0  0  0  0  0  0
   -0.1960   12.8880   18.3320 H   0  0  0  0  0  0  0  0  0  0  0  0
    1.3490   12.5590   19.0660 H   0  0  0  0  0  0  0  0  0  0  0  0
    0.2150   11.3420   20.9400 H   0  0  0  0  0  0  0  0  0  0  0  0
   -0.3170   13.0070   20.8220 H   0  0  0  0  0  0  0  0  0  0  0  0
   -2.7610   14.4850   24.1950 C   0  0  0  0  0  0  0  0  0  0  0  0
   -1.6800   13.6630   23.9190 C   0  0  0  0  0  0  0  0  0  0  0  0
   -1.6690   12.9670   22.7160 C   0  0  0  0  0  0  0  0  0  0  0  0
   -2.7290   13.0950   21.8010 C   0  0  0  0  0  0  0  0  0  0  0  0
   -2.7710   12.4100   20.5510 C   0  0  0  0  0  0  0  0  0  0  0  0
   -3.8690   12.6160   19.7040 C   0  0  0  0  0  0  0  0  0  0  0  0
   -4.8970   13.4780   20.0720 C   0  0  0  0  0  0  0  0  0  0  0  0
   -4.8390   14.1400   21.2980 C   0  0  0  0  0  0  0  0  0  0  0  0
   -3.7780   13.9660   22.1720 C   0  0  0  0  0  0  0  0  0  0  0  0
   -3.7960   14.6400   23.3360 N   0  0  0  0  0  0  0  0  0  0  0  0
   -0.8570   13.5640   24.6180 H   0  0  0  0  0  0  0  0  0  0  0  0
   -0.8240   12.3230   22.4830 H   0  0  0  0  0  0  0  0  0  0  0  0
   -3.9420   12.0950   18.7540 H   0  0  0  0  0  0  0  0  0  0  0  0
   -5.7460   13.6330   19.4110 H   0  0  0  0  0  0  0  0  0  0  0  0
   -5.6460   14.8110   21.5810 H   0  0  0  0  0  0  0  0  0  0  0  0
   -2.8070   15.2670   25.4720 C   0  0  0  0  0  0  0  0  0  0  0  0
   -1.9080   15.0740   26.0630 H   0  0  0  0  0  0  0  0  0  0  0  0
   -3.6890   14.9910   26.0570 H   0  0  0  0  0  0  0  0  0  0  0  0
   -2.8590   16.3420   25.2690 H   0  0  0  0  0  0  0  0  0  0  0  0
    1.6550   10.1820   18.2940 C   0  0  0  0  0  0  0  0  0  0  0  0
    1.9870    9.8020   17.3200 H   0  0  0  0  0  0  0  0  0  0  0  0
    2.4290   10.8820   18.6360 H   0  0  0  0  0  0  0  0  0  0  0  0
    1.5990    8.9840   19.2640 C   0  0  0  0  0  0  0  0  0  0  0  0
    0.5670    8.7260   19.5300 H   0  0  0  0  0  0  0  0  0  0  0  0
    2.0710    9.2870   20.2080 H   0  0  0  0  0  0  0  0  0  0  0  0
    2.3090    7.7550   18.7410 C   0  0  0  0  0  0  0  0  0  0  0  0
    2.0350    6.4930   19.2540 C   0  0  0  0  0  0  0  0  0  0  0  0
    2.6890    5.3700   18.7350 C   0  0  0  0  0  0  0  0  0  0  0  0
    3.6490    5.4620   17.6880 C   0  0  0  0  0  0  0  0  0  0  0  0
    4.3730    4.3790   17.0910 C   0  0  0  0  0  0  0  0  0  0  0  0
    5.2710    4.6700   16.0580 C   0  0  0  0  0  0  0  0  0  0  0  0
    5.4670    5.9320   15.6300 N   0  0  0  0  0  0  0  0  0  0  0  0
    4.7840    6.9650   16.1980 N   0  0  0  0  0  0  0  0  0  0  0  0
    3.9080    6.7520   17.1860 C   0  0  0  0  0  0  0  0  0  0  0  0
    3.2460    7.8580   17.7080 C   0  0  0  0  0  0  0  0  0  0  0  0
    1.3040    6.3890   20.0490 H   0  0  0  0  0  0  0  0  0  0  0  0
    3.4770    8.8350   17.2850 H   0  0  0  0  0  0  0  0  0  0  0  0
    4.1770    2.9610   17.5570 C   0  0  0  0  0  0  0  0  0  0  0  0
    3.1250    2.6720   17.4640 H   0  0  0  0  0  0  0  0  0  0  0  0
    4.7480    2.2330   16.9770 H   0  0  0  0  0  0  0  0  0  0  0  0
    4.5100    2.8540   18.5940 H   0  0  0  0  0  0  0  0  0  0  0  0
    6.0780    3.6270   15.3470 C   0  0  0  0  0  0  0  0  0  0  0  0
    5.8240    2.6230   15.7090 H   0  0  0  0  0  0  0  0  0  0  0  0
    7.1460    3.7810   15.5250 H   0  0  0  0  0  0  0  0  0  0  0  0
    5.8740    3.6510   14.2730 H   0  0  0  0  0  0  0  0  0  0  0  0
    2.3680    4.1480   19.2700 O   0  0  0  0  0  0  0  0  0  0  0  0
    2.7600    3.4490   18.7210 H   0  0  0  0  0  0  0  0  0  0  0  0
  1  6  1  0  0  0  0
  1 19  1  0  0  0  0
  2  8  1  0  0  0  0
  2  1  1  0  0  0  0
  3  2  1  0  0  0  0
  3  9  1  0  0  0  0
  4 34  1  0  0  0  0
  4  3  1  0  0  0  0
  4  5  1  0  0  0  0
  5 12  1  0  0  0  0
  5  6  1  0  0  0  0
  6 14  1  0  0  0  0
  6 13  1  0  0  0  0
  7  2  1  0  0  0  0
 10  3  1  0  0  0  0
 11  5  1  0  0  0  0
 15 30  1  0  0  0  0
 16 15  1  0  0  0  0
 16 25  1  0  0  0  0
 17 16  2  0  0  0  0
 18 23  1  0  0  0  0
 18 17  1  0  0  0  0
 19 18  2  0  0  0  0
 20 21  2  0  0  0  0
 20 19  1  0  0  0  0
 21 22  1  0  0  0  0
 22 29  1  0  0  0  0
 22 23  2  0  0  0  0
 23 24  1  0  0  0  0
 24 15  2  0  0  0  0
 26 17  1  0  0  0  0
 27 20  1  0  0  0  0
 28 21  1  0  0  0  0
 30 32  1  0  0  0  0
 30 31  1  0  0  0  0
 33 30  1  0  0  0  0
 34 36  1  0  0  0  0
 34 37  1  0  0  0  0
 35 34  1  0  0  0  0
 37 38  1  0  0  0  0
 37 39  1  0  0  0  0
 40 41  1  0  0  0  0
 40 37  1  0  0  0  0
 41 50  1  0  0  0  0
 42 41  2  0  0  0  0
 42 60  1  0  0  0  0
 43 42  1  0  0  0  0
 44 52  1  0  0  0  0
 44 43  2  0  0  0  0
 45 44  1  0  0  0  0
 46 45  2  0  0  0  0
 46 47  1  0  0  0  0
 47 48  2  0  0  0  0
 48 43  1  0  0  0  0
 48 49  1  0  0  0  0
 49 40  2  0  0  0  0
 51 49  1  0  0  0  0
 52 55  1  0  0  0  0
 53 52  1  0  0  0  0
 54 52  1  0  0  0  0
 56 58  1  0  0  0  0
 56 57  1  0  0  0  0
 56 45  1  0  0  0  0
 59 56  1  0  0  0  0
 61 60  1  0  0  0  0
M  END
>  <MODEL>
11

>  <REMARK>
 VINA RESULT:    -7.697      1.748      2.240
 INTER + INTRA:          -9.181
 INTER:                  -9.175
 INTRA:                  -0.005
 UNBOUND:                 1.216
  Name = 
  8 active torsions:
  status: ('A' for Active; 'I' for Inactive)
    1  A    between atoms: C_1  and  C_2
    2  A    between atoms: C_6  and  N_7
    3  A    between atoms: N_10  and  C_11
    4  A    between atoms: C_11  and  C_12
    5  A    between atoms: C_12  and  C_13
    6  A    between atoms: C_15  and  O_16
    7  A    between atoms: C_18  and  C_19
    8  A    between atoms: C_20  and  C_21
                            x       y       z     vdW  Elec       q    Type
                         _______ _______ _______ _____ _____    ______ ____

>  <TORSDO>
F 8

$$$$
=
 OpenBabel07192307433D

 61 65  0  0  0  0  0  0  0  0999 V2000
    3.7350    5.3980   18.6610 N   0  0  0  0  0  0  0  0  0  0  0  0
    3.4440    4.7620   19.9680 C   0  0  0  0  0  0  0  0  0  0  0  0
    2.0250    5.1470   20.4410 C   0  0  0  0  0  0  0  0  0  0  0  0
    1.8540    6.6020   20.6930 N   0  0  0  0  0  0  0  0  0  0  0  0
    2.7670    7.3990   19.8400 C   0  0  0  0  0  0  0  0  0  0  0  0
    3.1560    6.7520   18.4920 C   0  0  0  0  0  0  0  0  0  0  0  0
    4.1740    5.0620   20.7310 H   0  0  0  0  0  0  0  0  0  0  0  0
    3.5010    3.6720   19.8640 H   0  0  0  0  0  0  0  0  0  0  0  0
    1.3140    4.8020   19.6780 H   0  0  0  0  0  0  0  0  0  0  0  0
    1.8040    4.6010   21.3650 H   0  0  0  0  0  0  0  0  0  0  0  0
    3.6820    7.5560   20.4240 H   0  0  0  0  0  0  0  0  0  0  0  0
    2.3670    8.4050   19.6590 H   0  0  0  0  0  0  0  0  0  0  0  0
    2.2550    6.6470   17.8760 H   0  0  0  0  0  0  0  0  0  0  0  0
    3.8250    7.4210   17.9370 H   0  0  0  0  0  0  0  0  0  0  0  0
    6.2630    4.2080   14.4180 C   0  0  0  0  0  0  0  0  0  0  0  0
    4.9090    4.3750   14.6610 C   0  0  0  0  0  0  0  0  0  0  0  0
    4.5050    4.7200   15.9470 C   0  0  0  0  0  0  0  0  0  0  0  0
    5.4500    4.8960   16.9740 C   0  0  0  0  0  0  0  0  0  0  0  0
    5.0960    5.2540   18.3080 C   0  0  0  0  0  0  0  0  0  0  0  0
    6.1160    5.4180   19.2560 C   0  0  0  0  0  0  0  0  0  0  0  0
    7.4500    5.2410   18.9010 C   0  0  0  0  0  0  0  0  0  0  0  0
    7.7770    4.8920   17.5920 C   0  0  0  0  0  0  0  0  0  0  0  0
    6.8060    4.7140   16.6190 C   0  0  0  0  0  0  0  0  0  0  0  0
    7.2010    4.3770   15.3780 N   0  0  0  0  0  0  0  0  0  0  0  0
    4.1760    4.2450   13.8720 H   0  0  0  0  0  0  0  0  0  0  0  0
    3.4470    4.8610   16.1510 H   0  0  0  0  0  0  0  0  0  0  0  0
    5.8810    5.6700   20.2860 H   0  0  0  0  0  0  0  0  0  0  0  0
    8.2360    5.3690   19.6410 H   0  0  0  0  0  0  0  0  0  0  0  0
    8.8210    4.7530   17.3200 H   0  0  0  0  0  0  0  0  0  0  0  0
    6.7430    3.8520   13.0450 C   0  0  0  0  0  0  0  0  0  0  0  0
    6.7060    2.7690   12.9030 H   0  0  0  0  0  0  0  0  0  0  0  0
    7.7700    4.2000   12.8970 H   0  0  0  0  0  0  0  0  0  0  0  0
    6.1140    4.3190   12.2790 H   0  0  0  0  0  0  0  0  0  0  0  0
    0.4480    7.0230   20.5250 C   0  0  0  0  0  0  0  0  0  0  0  0
    0.3680    7.6860   19.6530 H   0  0  0  0  0  0  0  0  0  0  0  0
   -0.1770    6.1470   20.3080 H   0  0  0  0  0  0  0  0  0  0  0  0
   -0.1420    7.7750   21.7350 C   0  0  0  0  0  0  0  0  0  0  0  0
    0.4360    7.5890   22.6490 H   0  0  0  0  0  0  0  0  0  0  0  0
   -1.1390    7.3620   21.9390 H   0  0  0  0  0  0  0  0  0  0  0  0
   -0.2700    9.2640   21.5120 C   0  0  0  0  0  0  0  0  0  0  0  0
   -0.5990   10.1230   22.5550 C   0  0  0  0  0  0  0  0  0  0  0  0
   -0.6880   11.5000   22.3260 C   0  0  0  0  0  0  0  0  0  0  0  0
   -0.4600   12.0760   21.0440 C   0  0  0  0  0  0  0  0  0  0  0  0
   -0.5270   13.4670   20.7050 C   0  0  0  0  0  0  0  0  0  0  0  0
   -0.2550   13.8430   19.3860 C   0  0  0  0  0  0  0  0  0  0  0  0
    0.0560   12.9320   18.4440 N   0  0  0  0  0  0  0  0  0  0  0  0
    0.1170   11.6080   18.7610 N   0  0  0  0  0  0  0  0  0  0  0  0
   -0.1270   11.1850   20.0050 C   0  0  0  0  0  0  0  0  0  0  0  0
   -0.0380    9.8190   20.2500 C   0  0  0  0  0  0  0  0  0  0  0  0
   -0.7750    9.7140   23.5450 H   0  0  0  0  0  0  0  0  0  0  0  0
    0.2260    9.1700   19.4160 H   0  0  0  0  0  0  0  0  0  0  0  0
   -0.8800   14.5040   21.7390 C   0  0  0  0  0  0  0  0  0  0  0  0
   -0.5940   14.1590   22.7380 H   0  0  0  0  0  0  0  0  0  0  0  0
   -0.3700   15.4570   21.5860 H   0  0  0  0  0  0  0  0  0  0  0  0
   -1.9520   14.7220   21.7050 H   0  0  0  0  0  0  0  0  0  0  0  0
   -0.2830   15.2630   18.9100 C   0  0  0  0  0  0  0  0  0  0  0  0
    0.7130   15.5860   18.5840 H   0  0  0  0  0  0  0  0  0  0  0  0
   -0.5980   15.9320   19.7160 H   0  0  0  0  0  0  0  0  0  0  0  0
   -0.9590   15.3680   18.0560 H   0  0  0  0  0  0  0  0  0  0  0  0
   -1.0020   12.3000   23.3950 O   0  0  0  0  0  0  0  0  0  0  0  0
   -1.7630   12.8560   23.1630 H   0  0  0  0  0  0  0  0  0  0  0  0
  1  2  1  0  0  0  0
  2  3  1  0  0  0  0
  2  7  1  0  0  0  0
  3  4  1  0  0  0  0
  3 10  1  0  0  0  0
  5 11  1  0  0  0  0
  5  4  1  0  0  0  0
  6  1  1  0  0  0  0
  6  5  1  0  0  0  0
  8  2  1  0  0  0  0
  9  3  1  0  0  0  0
 12  5  1  0  0  0  0
 13  6  1  0  0  0  0
 14  6  1  0  0  0  0
 15 16  2  0  0  0  0
 15 24  1  0  0  0  0
 16 17  1  0  0  0  0
 17 26  1  0  0  0  0
 17 18  2  0  0  0  0
 18 19  1  0  0  0  0
 19  1  1  0  0  0  0
 19 20  2  0  0  0  0
 20 27  1  0  0  0  0
 21 20  1  0  0  0  0
 21 28  1  0  0  0  0
 22 21  2  0  0  0  0
 23 18  1  0  0  0  0
 23 22  1  0  0  0  0
 24 23  2  0  0  0  0
 25 16  1  0  0  0  0
 29 22  1  0  0  0  0
 30 15  1  0  0  0  0
 31 30  1  0  0  0  0
 32 30  1  0  0  0  0
 33 30  1  0  0  0  0
 34  4  1  0  0  0  0
 34 37  1  0  0  0  0
 35 34  1  0  0  0  0
 36 34  1  0  0  0  0
 37 39  1  0  0  0  0
 37 38  1  0  0  0  0
 40 37  1  0  0  0  0
 40 41  1  0  0  0  0
 41 50  1  0  0  0  0
 42 41  2  0  0  0  0
 42 60  1  0  0  0  0
 43 42  1  0  0  0  0
 44 43  1  0  0  0  0
 44 52  1  0  0  0  0
 45 44  2  0  0  0  0
 46 47  2  0  0  0  0
 46 45  1  0  0  0  0
 47 48  1  0  0  0  0
 48 49  1  0  0  0  0
 48 43  2  0  0  0  0
 49 40  2  0  0  0  0
 51 49  1  0  0  0  0
 52 53  1  0  0  0  0
 54 52  1  0  0  0  0
 55 52  1  0  0  0  0
 56 45  1  0  0  0  0
 56 58  1  0  0  0  0
 57 56  1  0  0  0  0
 59 56  1  0  0  0  0
 61 60  1  0  0  0  0
M  END
>  <MODEL>
12

>  <REMARK>
 VINA RESULT:    -7.651      3.363     11.118
 INTER + INTRA:          -9.118
 INTER:                  -8.507
 INTRA:                  -0.611
 UNBOUND:                 1.216
  Name = 
  8 active torsions:
  status: ('A' for Active; 'I' for Inactive)
    1  A    between atoms: C_1  and  C_2
    2  A    between atoms: C_6  and  N_7
    3  A    between atoms: N_10  and  C_11
    4  A    between atoms: C_11  and  C_12
    5  A    between atoms: C_12  and  C_13
    6  A    between atoms: C_15  and  O_16
    7  A    between atoms: C_18  and  C_19
    8  A    between atoms: C_20  and  C_21
                            x       y       z     vdW  Elec       q    Type
                         _______ _______ _______ _____ _____    ______ ____

>  <TORSDO>
F 8

$$$$
=
 OpenBabel07192307433D

 61 65  0  0  0  0  0  0  0  0999 V2000
    0.2030   10.4490   20.8380 N   0  0  0  0  0  0  0  0  0  0  0  0
    1.0910   10.1110   19.7000 C   0  0  0  0  0  0  0  0  0  0  0  0
    1.1220    8.5820   19.4860 C   0  0  0  0  0  0  0  0  0  0  0  0
    1.6920    7.8290   20.6340 N   0  0  0  0  0  0  0  0  0  0  0  0
    1.4720    8.5570   21.9070 C   0  0  0  0  0  0  0  0  0  0  0  0
    0.2250    9.4680   21.9480 C   0  0  0  0  0  0  0  0  0  0  0  0
    2.1140   10.4740   19.8690 H   0  0  0  0  0  0  0  0  0  0  0  0
    0.7150   10.5920   18.7890 H   0  0  0  0  0  0  0  0  0  0  0  0
    0.0940    8.2530   19.2820 H   0  0  0  0  0  0  0  0  0  0  0  0
    1.7180    8.3660   18.5920 H   0  0  0  0  0  0  0  0  0  0  0  0
    2.3600    9.1810   22.0660 H   0  0  0  0  0  0  0  0  0  0  0  0
    1.4500    7.8690   22.7600 H   0  0  0  0  0  0  0  0  0  0  0  0
   -0.6720    8.8440   21.8510 H   0  0  0  0  0  0  0  0  0  0  0  0
    0.1500    9.9530   22.9300 H   0  0  0  0  0  0  0  0  0  0  0  0
   -2.5080   13.6940   23.6530 C   0  0  0  0  0  0  0  0  0  0  0  0
   -2.6840   12.3460   23.3850 C   0  0  0  0  0  0  0  0  0  0  0  0
   -1.7540   11.7060   22.5730 C   0  0  0  0  0  0  0  0  0  0  0  0
   -0.6600   12.4110   22.0380 C   0  0  0  0  0  0  0  0  0  0  0  0
    0.3260   11.8080   21.2050 C   0  0  0  0  0  0  0  0  0  0  0  0
    1.3850   12.5970   20.7320 C   0  0  0  0  0  0  0  0  0  0  0  0
    1.4760   13.9430   21.0750 C   0  0  0  0  0  0  0  0  0  0  0  0
    0.5010   14.5150   21.8920 C   0  0  0  0  0  0  0  0  0  0  0  0
   -0.5660   13.7790   22.3810 C   0  0  0  0  0  0  0  0  0  0  0  0
   -1.4650   14.4040   23.1630 N   0  0  0  0  0  0  0  0  0  0  0  0
   -3.5220   11.7960   23.7990 H   0  0  0  0  0  0  0  0  0  0  0  0
   -1.8750   10.6470   22.3600 H   0  0  0  0  0  0  0  0  0  0  0  0
    2.1420   12.1750   20.0790 H   0  0  0  0  0  0  0  0  0  0  0  0
    2.2980   14.5490   20.7060 H   0  0  0  0  0  0  0  0  0  0  0  0
    0.5760   15.5670   22.1560 H   0  0  0  0  0  0  0  0  0  0  0  0
   -3.4770   14.4200   24.5360 C   0  0  0  0  0  0  0  0  0  0  0  0
   -4.2880   14.8420   23.9370 H   0  0  0  0  0  0  0  0  0  0  0  0
   -2.9720   15.2250   25.0770 H   0  0  0  0  0  0  0  0  0  0  0  0
   -3.9150   13.7400   25.2740 H   0  0  0  0  0  0  0  0  0  0  0  0
    1.1640    6.4520   20.6990 C   0  0  0  0  0  0  0  0  0  0  0  0
    0.4810    6.3620   21.5540 H   0  0  0  0  0  0  0  0  0  0  0  0
    0.5670    6.2410   19.8020 H   0  0  0  0  0  0  0  0  0  0  0  0
    2.2440    5.3620   20.8520 C   0  0  0  0  0  0  0  0  0  0  0  0
    1.8220    4.4250   21.2350 H   0  0  0  0  0  0  0  0  0  0  0  0
    2.9540    5.6910   21.6220 H   0  0  0  0  0  0  0  0  0  0  0  0
    3.0060    5.0880   19.5760 C   0  0  0  0  0  0  0  0  0  0  0  0
    2.4680    4.2900   18.5720 C   0  0  0  0  0  0  0  0  0  0  0  0
    3.1850    4.0730   17.3910 C   0  0  0  0  0  0  0  0  0  0  0  0
    4.4730    4.6370   17.1650 C   0  0  0  0  0  0  0  0  0  0  0  0
    5.2870    4.4760   15.9970 C   0  0  0  0  0  0  0  0  0  0  0  0
    6.5250    5.1250   15.9560 C   0  0  0  0  0  0  0  0  0  0  0  0
    6.9600    5.8800   16.9840 N   0  0  0  0  0  0  0  0  0  0  0  0
    6.1900    6.0320   18.0980 N   0  0  0  0  0  0  0  0  0  0  0  0
    4.9950    5.4420   18.1970 C   0  0  0  0  0  0  0  0  0  0  0  0
    4.2670    5.6530   19.3630 C   0  0  0  0  0  0  0  0  0  0  0  0
    1.4860    3.8500   18.7130 H   0  0  0  0  0  0  0  0  0  0  0  0
    4.7110    6.2860   20.1310 H   0  0  0  0  0  0  0  0  0  0  0  0
    4.8270    3.6310   14.8380 C   0  0  0  0  0  0  0  0  0  0  0  0
    3.7340    3.5710   14.8210 H   0  0  0  0  0  0  0  0  0  0  0  0
    5.1280    4.0310   13.8670 H   0  0  0  0  0  0  0  0  0  0  0  0
    5.2620    2.6290   14.9040 H   0  0  0  0  0  0  0  0  0  0  0  0
    7.4620    5.0430   14.7900 C   0  0  0  0  0  0  0  0  0  0  0  0
    8.4850    5.2950   15.0910 H   0  0  0  0  0  0  0  0  0  0  0  0
    7.1650    5.7500   14.0090 H   0  0  0  0  0  0  0  0  0  0  0  0
    7.4800    4.0280   14.3830 H   0  0  0  0  0  0  0  0  0  0  0  0
    2.5990    3.2890   16.4300 O   0  0  0  0  0  0  0  0  0  0  0  0
    1.9390    3.8160   15.9500 H   0  0  0  0  0  0  0  0  0  0  0  0
  1 19  1  0  0  0  0
  1  6  1  0  0  0  0
  2  7  1  0  0  0  0
  2  1  1  0  0  0  0
  3  2  1  0  0  0  0
  3  4  1  0  0  0  0
  4 34  1  0  0  0  0
  4  5  1  0  0  0  0
  5  6  1  0  0  0  0
  5 11  1  0  0  0  0
  5 12  1  0  0  0  0
  6 14  1  0  0  0  0
  8  2  1  0  0  0  0
  9  3  1  0  0  0  0
 10  3  1  0  0  0  0
 13  6  1  0  0  0  0
 15 30  1  0  0  0  0
 16 15  1  0  0  0  0
 16 25  1  0  0  0  0
 17 16  2  0  0  0  0
 18 23  1  0  0  0  0
 18 17  1  0  0  0  0
 19 18  2  0  0  0  0
 20 21  2  0  0  0  0
 20 19  1  0  0  0  0
 21 22  1  0  0  0  0
 22 29  1  0  0  0  0
 22 23  2  0  0  0  0
 23 24  1  0  0  0  0
 24 15  2  0  0  0  0
 26 17  1  0  0  0  0
 27 20  1  0  0  0  0
 28 21  1  0  0  0  0
 30 32  1  0  0  0  0
 30 33  1  0  0  0  0
 31 30  1  0  0  0  0
 34 37  1  0  0  0  0
 34 35  1  0  0  0  0
 36 34  1  0  0  0  0
 37 38  1  0  0  0  0
 37 39  1  0  0  0  0
 40 37  1  0  0  0  0
 41 50  1  0  0  0  0
 41 40  2  0  0  0  0
 42 41  1  0  0  0  0
 43 42  2  0  0  0  0
 43 48  1  0  0  0  0
 44 43  1  0  0  0  0
 45 44  2  0  0  0  0
 45 46  1  0  0  0  0
 46 47  2  0  0  0  0
 47 48  1  0  0  0  0
 48 49  2  0  0  0  0
 49 40  1  0  0  0  0
 49 51  1  0  0  0  0
 52 55  1  0  0  0  0
 52 44  1  0  0  0  0
 53 52  1  0  0  0  0
 54 52  1  0  0  0  0
 56 57  1  0  0  0  0
 56 45  1  0  0  0  0
 58 56  1  0  0  0  0
 59 56  1  0  0  0  0
 60 42  1  0  0  0  0
 61 60  1  0  0  0  0
M  END
>  <MODEL>
13

>  <REMARK>
 VINA RESULT:    -7.616      2.405      3.713
 INTER + INTRA:          -9.071
 INTER:                  -8.871
 INTRA:                  -0.200
 UNBOUND:                 1.216
  Name = 
  8 active torsions:
  status: ('A' for Active; 'I' for Inactive)
    1  A    between atoms: C_1  and  C_2
    2  A    between atoms: C_6  and  N_7
    3  A    between atoms: N_10  and  C_11
    4  A    between atoms: C_11  and  C_12
    5  A    between atoms: C_12  and  C_13
    6  A    between atoms: C_15  and  O_16
    7  A    between atoms: C_18  and  C_19
    8  A    between atoms: C_20  and  C_21
                            x       y       z     vdW  Elec       q    Type
                         _______ _______ _______ _____ _____    ______ ____

>  <TORSDO>
F 8

$$$$
=
 OpenBabel07192307433D

 61 65  0  0  0  0  0  0  0  0999 V2000
    1.9680    7.3700   18.7010 N   0  0  0  0  0  0  0  0  0  0  0  0
    1.9690    8.0470   20.0190 C   0  0  0  0  0  0  0  0  0  0  0  0
    1.0940    9.3190   19.9640 C   0  0  0  0  0  0  0  0  0  0  0  0
    1.6000   10.3500   19.0200 N   0  0  0  0  0  0  0  0  0  0  0  0
    2.3550    9.7260   17.9080 C   0  0  0  0  0  0  0  0  0  0  0  0
    1.9320    8.2870   17.5380 C   0  0  0  0  0  0  0  0  0  0  0  0
    2.9870    8.3200   20.3290 H   0  0  0  0  0  0  0  0  0  0  0  0
    1.5620    7.3680   20.7790 H   0  0  0  0  0  0  0  0  0  0  0  0
    0.0760    9.0120   19.6900 H   0  0  0  0  0  0  0  0  0  0  0  0
    1.0460    9.7540   20.9680 H   0  0  0  0  0  0  0  0  0  0  0  0
    3.4070    9.7070   18.2180 H   0  0  0  0  0  0  0  0  0  0  0  0
    2.3340   10.3550   17.0090 H   0  0  0  0  0  0  0  0  0  0  0  0
    0.8990    8.3060   17.1680 H   0  0  0  0  0  0  0  0  0  0  0  0
    2.5440    7.9210   16.7040 H   0  0  0  0  0  0  0  0  0  0  0  0
    2.5790    2.8830   21.0030 C   0  0  0  0  0  0  0  0  0  0  0  0
    1.5630    3.8220   21.0820 C   0  0  0  0  0  0  0  0  0  0  0  0
    1.6650    4.9740   20.3100 C   0  0  0  0  0  0  0  0  0  0  0  0
    2.7730    5.1790   19.4670 C   0  0  0  0  0  0  0  0  0  0  0  0
    2.9300    6.3360   18.6500 C   0  0  0  0  0  0  0  0  0  0  0  0
    4.0670    6.4380   17.8350 C   0  0  0  0  0  0  0  0  0  0  0  0
    5.0220    5.4260   17.8190 C   0  0  0  0  0  0  0  0  0  0  0  0
    4.8510    4.3020   18.6250 C   0  0  0  0  0  0  0  0  0  0  0  0
    3.7480    4.1560   19.4500 C   0  0  0  0  0  0  0  0  0  0  0  0
    3.6560    3.0410   20.1980 N   0  0  0  0  0  0  0  0  0  0  0  0
    0.7040    3.6680   21.7260 H   0  0  0  0  0  0  0  0  0  0  0  0
    0.8730    5.7160   20.3560 H   0  0  0  0  0  0  0  0  0  0  0  0
    4.2280    7.3150   17.2150 H   0  0  0  0  0  0  0  0  0  0  0  0
    5.9010    5.5120   17.1860 H   0  0  0  0  0  0  0  0  0  0  0  0
    5.6010    3.5150   18.6100 H   0  0  0  0  0  0  0  0  0  0  0  0
    2.5020    1.6200   21.8060 C   0  0  0  0  0  0  0  0  0  0  0  0
    3.5060    1.2950   22.0910 H   0  0  0  0  0  0  0  0  0  0  0  0
    2.0180    0.8280   21.2270 H   0  0  0  0  0  0  0  0  0  0  0  0
    1.9200    1.7760   22.7200 H   0  0  0  0  0  0  0  0  0  0  0  0
    0.5100   11.2110   18.5190 C   0  0  0  0  0  0  0  0  0  0  0  0
    0.6110   12.2160   18.9490 H   0  0  0  0  0  0  0  0  0  0  0  0
    0.6010   11.3280   17.4310 H   0  0  0  0  0  0  0  0  0  0  0  0
   -0.9080   10.7060   18.8540 C   0  0  0  0  0  0  0  0  0  0  0  0
   -0.8880    9.6980   19.2860 H   0  0  0  0  0  0  0  0  0  0  0  0
   -1.4640   10.6010   17.9130 H   0  0  0  0  0  0  0  0  0  0  0  0
   -1.6760   11.6330   19.7690 C   0  0  0  0  0  0  0  0  0  0  0  0
   -2.9060   12.1600   19.3930 C   0  0  0  0  0  0  0  0  0  0  0  0
   -3.6060   12.9970   20.2680 C   0  0  0  0  0  0  0  0  0  0  0  0
   -3.1030   13.3480   21.5530 C   0  0  0  0  0  0  0  0  0  0  0  0
   -3.7370   14.1950   22.5200 C   0  0  0  0  0  0  0  0  0  0  0  0
   -3.0880   14.4120   23.7400 C   0  0  0  0  0  0  0  0  0  0  0  0
   -1.8930   13.8540   24.0110 N   0  0  0  0  0  0  0  0  0  0  0  0
   -1.2840   13.0520   23.0920 N   0  0  0  0  0  0  0  0  0  0  0  0
   -1.8550   12.8010   21.9100 C   0  0  0  0  0  0  0  0  0  0  0  0
   -1.1740   11.9660   21.0310 C   0  0  0  0  0  0  0  0  0  0  0  0
   -3.3180   11.9060   18.4210 H   0  0  0  0  0  0  0  0  0  0  0  0
   -0.2150   11.5640   21.3530 H   0  0  0  0  0  0  0  0  0  0  0  0
   -5.0710   14.8360   22.2370 C   0  0  0  0  0  0  0  0  0  0  0  0
   -4.9330   15.7760   21.6930 H   0  0  0  0  0  0  0  0  0  0  0  0
   -5.7250   14.2170   21.6200 H   0  0  0  0  0  0  0  0  0  0  0  0
   -5.6110   15.0140   23.1730 H   0  0  0  0  0  0  0  0  0  0  0  0
   -3.6520   15.2670   24.8330 C   0  0  0  0  0  0  0  0  0  0  0  0
   -4.0140   14.6500   25.6640 H   0  0  0  0  0  0  0  0  0  0  0  0
   -4.4990   15.8530   24.4650 H   0  0  0  0  0  0  0  0  0  0  0  0
   -2.8830   15.9360   25.2310 H   0  0  0  0  0  0  0  0  0  0  0  0
   -4.8210   13.4750   19.8500 O   0  0  0  0  0  0  0  0  0  0  0  0
   -5.1030   12.9800   19.0630 H   0  0  0  0  0  0  0  0  0  0  0  0
  1  2  1  0  0  0  0
  2  7  1  0  0  0  0
  2  8  1  0  0  0  0
  3  2  1  0  0  0  0
  3 10  1  0  0  0  0
  4  3  1  0  0  0  0
  5 11  1  0  0  0  0
  5  4  1  0  0  0  0
  6  5  1  0  0  0  0
  6  1  1  0  0  0  0
  9  3  1  0  0  0  0
 12  5  1  0  0  0  0
 13  6  1  0  0  0  0
 14  6  1  0  0  0  0
 15 16  1  0  0  0  0
 15 30  1  0  0  0  0
 16 25  1  0  0  0  0
 17 26  1  0  0  0  0
 17 16  2  0  0  0  0
 18 17  1  0  0  0  0
 19  1  1  0  0  0  0
 19 18  2  0  0  0  0
 20 19  1  0  0  0  0
 21 20  2  0  0  0  0
 21 22  1  0  0  0  0
 22 23  2  0  0  0  0
 23 18  1  0  0  0  0
 23 24  1  0  0  0  0
 24 15  2  0  0  0  0
 27 20  1  0  0  0  0
 28 21  1  0  0  0  0
 29 22  1  0  0  0  0
 30 31  1  0  0  0  0
 30 33  1  0  0  0  0
 32 30  1  0  0  0  0
 34 37  1  0  0  0  0
 34 35  1  0  0  0  0
 34  4  1  0  0  0  0
 36 34  1  0  0  0  0
 37 38  1  0  0  0  0
 37 40  1  0  0  0  0
 39 37  1  0  0  0  0
 40 49  1  0  0  0  0
 41 40  2  0  0  0  0
 41 42  1  0  0  0  0
 42 43  2  0  0  0  0
 43 48  1  0  0  0  0
 43 44  1  0  0  0  0
 44 45  2  0  0  0  0
 45 46  1  0  0  0  0
 45 56  1  0  0  0  0
 47 46  2  0  0  0  0
 48 47  1  0  0  0  0
 49 51  1  0  0  0  0
 49 48  2  0  0  0  0
 50 41  1  0  0  0  0
 52 44  1  0  0  0  0
 52 55  1  0  0  0  0
 53 52  1  0  0  0  0
 54 52  1  0  0  0  0
 56 59  1  0  0  0  0
 56 57  1  0  0  0  0
 58 56  1  0  0  0  0
 60 42  1  0  0  0  0
 61 60  1  0  0  0  0
M  END
>  <MODEL>
14

>  <REMARK>
 VINA RESULT:    -7.614      2.853     10.528
 INTER + INTRA:          -9.068
 INTER:                  -8.824
 INTRA:                  -0.245
 UNBOUND:                 1.216
  Name = 
  8 active torsions:
  status: ('A' for Active; 'I' for Inactive)
    1  A    between atoms: C_1  and  C_2
    2  A    between atoms: C_6  and  N_7
    3  A    between atoms: N_10  and  C_11
    4  A    between atoms: C_11  and  C_12
    5  A    between atoms: C_12  and  C_13
    6  A    between atoms: C_15  and  O_16
    7  A    between atoms: C_18  and  C_19
    8  A    between atoms: C_20  and  C_21
                            x       y       z     vdW  Elec       q    Type
                         _______ _______ _______ _____ _____    ______ ____

>  <TORSDO>
F 8

$$$$
=
 OpenBabel07192307433D

 61 65  0  0  0  0  0  0  0  0999 V2000
    1.9170    8.5530   19.6420 N   0  0  0  0  0  0  0  0  0  0  0  0
    1.3260    9.0520   18.3780 C   0  0  0  0  0  0  0  0  0  0  0  0
    0.9070   10.5310   18.5350 C   0  0  0  0  0  0  0  0  0  0  0  0
   -0.1570   10.7450   19.5490 N   0  0  0  0  0  0  0  0  0  0  0  0
   -0.1000    9.7070   20.6070 C   0  0  0  0  0  0  0  0  0  0  0  0
    1.2960    9.1000   20.8710 C   0  0  0  0  0  0  0  0  0  0  0  0
    0.4510    8.4570   18.0820 H   0  0  0  0  0  0  0  0  0  0  0  0
    2.0670    8.9750   17.5730 H   0  0  0  0  0  0  0  0  0  0  0  0
    1.8070   11.1060   18.7930 H   0  0  0  0  0  0  0  0  0  0  0  0
    0.5500   10.8980   17.5660 H   0  0  0  0  0  0  0  0  0  0  0  0
   -0.7720    8.9010   20.2880 H   0  0  0  0  0  0  0  0  0  0  0  0
   -0.5220   10.0750   21.5500 H   0  0  0  0  0  0  0  0  0  0  0  0
    1.9590    9.8890   21.2490 H   0  0  0  0  0  0  0  0  0  0  0  0
    1.2320    8.3520   21.6710 H   0  0  0  0  0  0  0  0  0  0  0  0
    4.6330    5.3320   16.8040 C   0  0  0  0  0  0  0  0  0  0  0  0
    4.5500    6.7150   16.7940 C   0  0  0  0  0  0  0  0  0  0  0  0
    3.7140    7.3340   17.7160 C   0  0  0  0  0  0  0  0  0  0  0  0
    2.9710    6.5730   18.6380 C   0  0  0  0  0  0  0  0  0  0  0  0
    2.1020    7.1520   19.6080 C   0  0  0  0  0  0  0  0  0  0  0  0
    1.4160    6.3050   20.4900 C   0  0  0  0  0  0  0  0  0  0  0  0
    1.5840    4.9250   20.4250 C   0  0  0  0  0  0  0  0  0  0  0  0
    2.4380    4.3770   19.4690 C   0  0  0  0  0  0  0  0  0  0  0  0
    3.1360    5.1710   18.5720 C   0  0  0  0  0  0  0  0  0  0  0  0
    3.9410    4.5670   17.6790 N   0  0  0  0  0  0  0  0  0  0  0  0
    5.1240    7.3070   16.0890 H   0  0  0  0  0  0  0  0  0  0  0  0
    3.6440    8.4190   17.7250 H   0  0  0  0  0  0  0  0  0  0  0  0
    0.7310    6.7110   21.2290 H   0  0  0  0  0  0  0  0  0  0  0  0
    1.0490    4.2740   21.1100 H   0  0  0  0  0  0  0  0  0  0  0  0
    2.5650    3.2990   19.4210 H   0  0  0  0  0  0  0  0  0  0  0  0
    5.5340    4.6240   15.8380 C   0  0  0  0  0  0  0  0  0  0  0  0
    4.9580    4.2660   14.9800 H   0  0  0  0  0  0  0  0  0  0  0  0
    6.0220    3.7740   16.3240 H   0  0  0  0  0  0  0  0  0  0  0  0
    6.3140    5.2980   15.4690 H   0  0  0  0  0  0  0  0  0  0  0  0
   -0.0990   12.1050   20.1220 C   0  0  0  0  0  0  0  0  0  0  0  0
   -1.1060   12.4140   20.4320 H   0  0  0  0  0  0  0  0  0  0  0  0
    0.5180   12.0990   21.0290 H   0  0  0  0  0  0  0  0  0  0  0  0
    0.4380   13.1810   19.1560 C   0  0  0  0  0  0  0  0  0  0  0  0
   -0.2310   14.0480   19.1030 H   0  0  0  0  0  0  0  0  0  0  0  0
    0.4390   12.7590   18.1420 H   0  0  0  0  0  0  0  0  0  0  0  0
    1.8380   13.6420   19.4900 C   0  0  0  0  0  0  0  0  0  0  0  0
    2.1940   13.9800   20.7910 C   0  0  0  0  0  0  0  0  0  0  0  0
    3.5030   14.3810   21.0760 C   0  0  0  0  0  0  0  0  0  0  0  0
    4.5110   14.4690   20.0740 C   0  0  0  0  0  0  0  0  0  0  0  0
    5.8740   14.8680   20.2600 C   0  0  0  0  0  0  0  0  0  0  0  0
    6.7220   14.8780   19.1480 C   0  0  0  0  0  0  0  0  0  0  0  0
    6.2800   14.5310   17.9230 N   0  0  0  0  0  0  0  0  0  0  0  0
    4.9830   14.1560   17.7410 N   0  0  0  0  0  0  0  0  0  0  0  0
    4.1250   14.1200   18.7650 C   0  0  0  0  0  0  0  0  0  0  0  0
    2.8200   13.7180   18.4970 C   0  0  0  0  0  0  0  0  0  0  0  0
    1.4500   13.9190   21.5780 H   0  0  0  0  0  0  0  0  0  0  0  0
    2.5710   13.4550   17.4710 H   0  0  0  0  0  0  0  0  0  0  0  0
    6.3900   15.2670   21.6190 C   0  0  0  0  0  0  0  0  0  0  0  0
    7.4780   15.1580   21.6600 H   0  0  0  0  0  0  0  0  0  0  0  0
    6.1750   16.3070   21.8730 H   0  0  0  0  0  0  0  0  0  0  0  0
    5.9170   14.6580   22.3960 H   0  0  0  0  0  0  0  0  0  0  0  0
    8.1670   15.2650   19.2150 C   0  0  0  0  0  0  0  0  0  0  0  0
    8.5580   15.1430   20.2320 H   0  0  0  0  0  0  0  0  0  0  0  0
    8.2970   16.3160   18.9360 H   0  0  0  0  0  0  0  0  0  0  0  0
    8.7650   14.6310   18.5540 H   0  0  0  0  0  0  0  0  0  0  0  0
    3.8010   14.6890   22.3800 O   0  0  0  0  0  0  0  0  0  0  0  0
    2.9740   14.8020   22.8760 H   0  0  0  0  0  0  0  0  0  0  0  0
  1  6  1  0  0  0  0
  2  3  1  0  0  0  0
  2  1  1  0  0  0  0
  3  9  1  0  0  0  0
  3  4  1  0  0  0  0
  4 34  1  0  0  0  0
  4  5  1  0  0  0  0
  5  6  1  0  0  0  0
  5 12  1  0  0  0  0
  6 13  1  0  0  0  0
  6 14  1  0  0  0  0
  7  2  1  0  0  0  0
  8  2  1  0  0  0  0
 10  3  1  0  0  0  0
 11  5  1  0  0  0  0
 15 24  1  0  0  0  0
 16 15  2  0  0  0  0
 16 17  1  0  0  0  0
 17 26  1  0  0  0  0
 17 18  2  0  0  0  0
 18 19  1  0  0  0  0
 19  1  1  0  0  0  0
 19 20  2  0  0  0  0
 20 27  1  0  0  0  0
 21 20  1  0  0  0  0
 21 28  1  0  0  0  0
 22 21  2  0  0  0  0
 23 18  1  0  0  0  0
 23 22  1  0  0  0  0
 24 23  2  0  0  0  0
 25 16  1  0  0  0  0
 29 22  1  0  0  0  0
 30 32  1  0  0  0  0
 30 15  1  0  0  0  0
 31 30  1  0  0  0  0
 33 30  1  0  0  0  0
 34 35  1  0  0  0  0
 34 36  1  0  0  0  0
 37 40  1  0  0  0  0
 37 34  1  0  0  0  0
 38 37  1  0  0  0  0
 39 37  1  0  0  0  0
 40 41  1  0  0  0  0
 41 42  2  0  0  0  0
 41 50  1  0  0  0  0
 42 60  1  0  0  0  0
 43 44  1  0  0  0  0
 43 42  1  0  0  0  0
 44 52  1  0  0  0  0
 45 56  1  0  0  0  0
 45 44  2  0  0  0  0
 46 45  1  0  0  0  0
 47 46  2  0  0  0  0
 47 48  1  0  0  0  0
 48 43  2  0  0  0  0
 49 48  1  0  0  0  0
 49 40  2  0  0  0  0
 51 49  1  0  0  0  0
 52 53  1  0  0  0  0
 52 54  1  0  0  0  0
 52 55  1  0  0  0  0
 56 57  1  0  0  0  0
 58 56  1  0  0  0  0
 59 56  1  0  0  0  0
 60 61  1  0  0  0  0
M  END
>  <MODEL>
15

>  <REMARK>
 VINA RESULT:    -7.609      4.460      9.683
 INTER + INTRA:          -9.061
 INTER:                  -8.914
 INTRA:                  -0.148
 UNBOUND:                 1.216
  Name = 
  8 active torsions:
  status: ('A' for Active; 'I' for Inactive)
    1  A    between atoms: C_1  and  C_2
    2  A    between atoms: C_6  and  N_7
    3  A    between atoms: N_10  and  C_11
    4  A    between atoms: C_11  and  C_12
    5  A    between atoms: C_12  and  C_13
    6  A    between atoms: C_15  and  O_16
    7  A    between atoms: C_18  and  C_19
    8  A    between atoms: C_20  and  C_21
                            x       y       z     vdW  Elec       q    Type
                         _______ _______ _______ _____ _____    ______ ____

>  <TORSDO>
F 8

$$$$
=
 OpenBabel07192307433D

 61 65  0  0  0  0  0  0  0  0999 V2000
    1.5590    8.3790   18.8510 N   0  0  0  0  0  0  0  0  0  0  0  0
    1.7340    8.9680   20.2000 C   0  0  0  0  0  0  0  0  0  0  0  0
    0.8350   10.2140   20.3560 C   0  0  0  0  0  0  0  0  0  0  0  0
    1.1800   11.3190   19.4240 N   0  0  0  0  0  0  0  0  0  0  0  0
    1.7820   10.7920   18.1760 C   0  0  0  0  0  0  0  0  0  0  0  0
    1.3390    9.3690   17.7700 C   0  0  0  0  0  0  0  0  0  0  0  0
    2.7810    9.2500   20.3810 H   0  0  0  0  0  0  0  0  0  0  0  0
    1.4540    8.2290   20.9600 H   0  0  0  0  0  0  0  0  0  0  0  0
   -0.2050    9.8950   20.2080 H   0  0  0  0  0  0  0  0  0  0  0  0
    0.9220   10.5810   21.3850 H   0  0  0  0  0  0  0  0  0  0  0  0
    2.8670   10.7840   18.3320 H   0  0  0  0  0  0  0  0  0  0  0  0
    1.6200   11.4780   17.3350 H   0  0  0  0  0  0  0  0  0  0  0  0
    0.2640    9.3810   17.5520 H   0  0  0  0  0  0  0  0  0  0  0  0
    1.8330    9.0770   16.8350 H   0  0  0  0  0  0  0  0  0  0  0  0
    2.6060    3.7870   20.7540 C   0  0  0  0  0  0  0  0  0  0  0  0
    1.5940    4.6890   21.0420 C   0  0  0  0  0  0  0  0  0  0  0  0
    1.5540    5.8850   20.3360 C   0  0  0  0  0  0  0  0  0  0  0  0
    2.5170    6.1730   19.3520 C   0  0  0  0  0  0  0  0  0  0  0  0
    2.5250    7.3790   18.5930 C   0  0  0  0  0  0  0  0  0  0  0  0
    3.5240    7.5630   17.6260 C   0  0  0  0  0  0  0  0  0  0  0  0
    4.4870    6.5840   17.4060 C   0  0  0  0  0  0  0  0  0  0  0  0
    4.4640    5.4100   18.1580 C   0  0  0  0  0  0  0  0  0  0  0  0
    3.5010    5.1830   19.1270 C   0  0  0  0  0  0  0  0  0  0  0  0
    3.5460    4.0240   19.8100 N   0  0  0  0  0  0  0  0  0  0  0  0
    0.8450    4.4710   21.7960 H   0  0  0  0  0  0  0  0  0  0  0  0
    0.7610    6.6000   20.5450 H   0  0  0  0  0  0  0  0  0  0  0  0
    3.5700    8.4790   17.0450 H   0  0  0  0  0  0  0  0  0  0  0  0
    5.2590    6.7330   16.6560 H   0  0  0  0  0  0  0  0  0  0  0  0
    5.2200    4.6480   17.9820 H   0  0  0  0  0  0  0  0  0  0  0  0
    2.6780    2.4780   21.4800 C   0  0  0  0  0  0  0  0  0  0  0  0
    3.6800    2.0510   21.3860 H   0  0  0  0  0  0  0  0  0  0  0  0
    1.9460    1.7750   21.0730 H   0  0  0  0  0  0  0  0  0  0  0  0
    2.4630    2.6120   22.5460 H   0  0  0  0  0  0  0  0  0  0  0  0
    0.0130   12.1790   19.1420 C   0  0  0  0  0  0  0  0  0  0  0  0
   -0.2820   12.0620   18.0920 H   0  0  0  0  0  0  0  0  0  0  0  0
   -0.8440   11.8490   19.7450 H   0  0  0  0  0  0  0  0  0  0  0  0
    0.2530   13.6820   19.3910 C   0  0  0  0  0  0  0  0  0  0  0  0
   -0.3790   14.0650   20.2010 H   0  0  0  0  0  0  0  0  0  0  0  0
   -0.0680   14.2310   18.4950 H   0  0  0  0  0  0  0  0  0  0  0  0
    1.6990   14.0200   19.6750 C   0  0  0  0  0  0  0  0  0  0  0  0
    2.1530   14.2070   20.9750 C   0  0  0  0  0  0  0  0  0  0  0  0
    3.5010   14.4960   21.2110 C   0  0  0  0  0  0  0  0  0  0  0  0
    4.4510   14.6180   20.1580 C   0  0  0  0  0  0  0  0  0  0  0  0
    5.8470   14.9120   20.2910 C   0  0  0  0  0  0  0  0  0  0  0  0
    6.6260   14.9790   19.1320 C   0  0  0  0  0  0  0  0  0  0  0  0
    6.0900   14.7820   17.9110 N   0  0  0  0  0  0  0  0  0  0  0  0
    4.7620   14.5070   17.7790 N   0  0  0  0  0  0  0  0  0  0  0  0
    3.9660   14.4240   18.8490 C   0  0  0  0  0  0  0  0  0  0  0  0
    2.6230   14.1330   18.6310 C   0  0  0  0  0  0  0  0  0  0  0  0
    1.4540   14.1150   21.8010 H   0  0  0  0  0  0  0  0  0  0  0  0
    2.2960   13.9870   17.6030 H   0  0  0  0  0  0  0  0  0  0  0  0
    6.4680   15.1430   21.6440 C   0  0  0  0  0  0  0  0  0  0  0  0
    7.0430   16.0730   21.6450 H   0  0  0  0  0  0  0  0  0  0  0  0
    5.7320   15.2360   22.4460 H   0  0  0  0  0  0  0  0  0  0  0  0
    7.1090   14.2980   21.9150 H   0  0  0  0  0  0  0  0  0  0  0  0
    8.0960   15.2670   19.1400 C   0  0  0  0  0  0  0  0  0  0  0  0
    8.5070   15.2340   18.1240 H   0  0  0  0  0  0  0  0  0  0  0  0
    8.6300   14.5210   19.7360 H   0  0  0  0  0  0  0  0  0  0  0  0
    8.2880   16.2670   19.5400 H   0  0  0  0  0  0  0  0  0  0  0  0
    3.8950   14.6540   22.5150 O   0  0  0  0  0  0  0  0  0  0  0  0
    3.6550   13.8590   23.0180 H   0  0  0  0  0  0  0  0  0  0  0  0
  1  2  1  0  0  0  0
  2  3  1  0  0  0  0
  2  7  1  0  0  0  0
  2  8  1  0  0  0  0
  3 10  1  0  0  0  0
  4  3  1  0  0  0  0
  5 11  1  0  0  0  0
  5  4  1  0  0  0  0
  6  5  1  0  0  0  0
  6  1  1  0  0  0  0
  9  3  1  0  0  0  0
 12  5  1  0  0  0  0
 13  6  1  0  0  0  0
 14  6  1  0  0  0  0
 15 16  1  0  0  0  0
 15 30  1  0  0  0  0
 16 25  1  0  0  0  0
 17 26  1  0  0  0  0
 17 16  2  0  0  0  0
 18 17  1  0  0  0  0
 19  1  1  0  0  0  0
 19 18  2  0  0  0  0
 20 19  1  0  0  0  0
 21 20  2  0  0  0  0
 21 22  1  0  0  0  0
 22 23  2  0  0  0  0
 23 18  1  0  0  0  0
 23 24  1  0  0  0  0
 24 15  2  0  0  0  0
 27 20  1  0  0  0  0
 28 21  1  0  0  0  0
 29 22  1  0  0  0  0
 30 33  1  0  0  0  0
 31 30  1  0  0  0  0
 32 30  1  0  0  0  0
 34 37  1  0  0  0  0
 34  4  1  0  0  0  0
 34 36  1  0  0  0  0
 35 34  1  0  0  0  0
 37 40  1  0  0  0  0
 37 38  1  0  0  0  0
 39 37  1  0  0  0  0
 40 41  1  0  0  0  0
 41 42  2  0  0  0  0
 41 50  1  0  0  0  0
 42 60  1  0  0  0  0
 43 44  1  0  0  0  0
 43 42  1  0  0  0  0
 44 52  1  0  0  0  0
 45 56  1  0  0  0  0
 45 44  2  0  0  0  0
 46 45  1  0  0  0  0
 47 46  2  0  0  0  0
 47 48  1  0  0  0  0
 48 43  2  0  0  0  0
 49 48  1  0  0  0  0
 49 40  2  0  0  0  0
 51 49  1  0  0  0  0
 52 53  1  0  0  0  0
 52 55  1  0  0  0  0
 52 54  1  0  0  0  0
 56 59  1  0  0  0  0
 56 58  1  0  0  0  0
 57 56  1  0  0  0  0
 60 61  1  0  0  0  0
M  END
>  <MODEL>
16

>  <REMARK>
 VINA RESULT:    -7.605      4.537      9.580
 INTER + INTRA:          -9.057
 INTER:                  -8.980
 INTRA:                  -0.077
 UNBOUND:                 1.216
  Name = 
  8 active torsions:
  status: ('A' for Active; 'I' for Inactive)
    1  A    between atoms: C_1  and  C_2
    2  A    between atoms: C_6  and  N_7
    3  A    between atoms: N_10  and  C_11
    4  A    between atoms: C_11  and  C_12
    5  A    between atoms: C_12  and  C_13
    6  A    between atoms: C_15  and  O_16
    7  A    between atoms: C_18  and  C_19
    8  A    between atoms: C_20  and  C_21
                            x       y       z     vdW  Elec       q    Type
                         _______ _______ _______ _____ _____    ______ ____

>  <TORSDO>
F 8

$$$$
=
 OpenBabel07192307433D

 61 65  0  0  0  0  0  0  0  0999 V2000
   -0.4580   11.7570   20.5970 N   0  0  0  0  0  0  0  0  0  0  0  0
   -1.0430   12.0030   19.2580 C   0  0  0  0  0  0  0  0  0  0  0  0
   -0.7790   10.7940   18.3340 C   0  0  0  0  0  0  0  0  0  0  0  0
    0.6630   10.5500   18.0670 N   0  0  0  0  0  0  0  0  0  0  0  0
    1.4980   11.0200   19.1980 C   0  0  0  0  0  0  0  0  0  0  0  0
    0.8170   11.0030   20.5840 C   0  0  0  0  0  0  0  0  0  0  0  0
   -0.6260   12.9090   18.7980 H   0  0  0  0  0  0  0  0  0  0  0  0
   -2.1260   12.1480   19.3540 H   0  0  0  0  0  0  0  0  0  0  0  0
   -1.2390    9.9120   18.7990 H   0  0  0  0  0  0  0  0  0  0  0  0
   -1.2900   10.9650   17.3800 H   0  0  0  0  0  0  0  0  0  0  0  0
    1.7820   12.0550   18.9670 H   0  0  0  0  0  0  0  0  0  0  0  0
    2.4450   10.4700   19.2500 H   0  0  0  0  0  0  0  0  0  0  0  0
    0.5840    9.9640   20.8500 H   0  0  0  0  0  0  0  0  0  0  0  0
    1.5170   11.3600   21.3490 H   0  0  0  0  0  0  0  0  0  0  0  0
   -3.9470   14.1340   23.4240 C   0  0  0  0  0  0  0  0  0  0  0  0
   -4.0010   12.9500   22.7060 C   0  0  0  0  0  0  0  0  0  0  0  0
   -2.8620   12.5360   22.0250 C   0  0  0  0  0  0  0  0  0  0  0  0
   -1.6820   13.3010   22.0670 C   0  0  0  0  0  0  0  0  0  0  0  0
   -0.4830   12.9250   21.3940 C   0  0  0  0  0  0  0  0  0  0  0  0
    0.6440   13.7520   21.5090 C   0  0  0  0  0  0  0  0  0  0  0  0
    0.5960   14.9150   22.2710 C   0  0  0  0  0  0  0  0  0  0  0  0
   -0.5860   15.2670   22.9220 C   0  0  0  0  0  0  0  0  0  0  0  0
   -1.7270   14.4850   22.8360 C   0  0  0  0  0  0  0  0  0  0  0  0
   -2.8290   14.8920   23.4940 N   0  0  0  0  0  0  0  0  0  0  0  0
   -4.9060   12.3530   22.6740 H   0  0  0  0  0  0  0  0  0  0  0  0
   -2.8870   11.6060   21.4630 H   0  0  0  0  0  0  0  0  0  0  0  0
    1.5670   13.5060   20.9940 H   0  0  0  0  0  0  0  0  0  0  0  0
    1.4720   15.5520   22.3560 H   0  0  0  0  0  0  0  0  0  0  0  0
   -0.6190   16.1770   23.5150 H   0  0  0  0  0  0  0  0  0  0  0  0
   -5.1470   14.6100   24.1840 C   0  0  0  0  0  0  0  0  0  0  0  0
   -5.6460   15.4120   23.6360 H   0  0  0  0  0  0  0  0  0  0  0  0
   -4.8520   14.9770   25.1720 H   0  0  0  0  0  0  0  0  0  0  0  0
   -5.8650   13.7950   24.3270 H   0  0  0  0  0  0  0  0  0  0  0  0
    0.9270    9.1330   17.7510 C   0  0  0  0  0  0  0  0  0  0  0  0
    0.4720    8.4950   18.5200 H   0  0  0  0  0  0  0  0  0  0  0  0
    0.4430    8.8680   16.8010 H   0  0  0  0  0  0  0  0  0  0  0  0
    2.4230    8.7650   17.6710 C   0  0  0  0  0  0  0  0  0  0  0  0
    3.0500    9.5020   18.1880 H   0  0  0  0  0  0  0  0  0  0  0  0
    2.7310    8.8180   16.6180 H   0  0  0  0  0  0  0  0  0  0  0  0
    2.7300    7.3820   18.1960 C   0  0  0  0  0  0  0  0  0  0  0  0
    3.7650    6.6220   17.6630 C   0  0  0  0  0  0  0  0  0  0  0  0
    4.0420    5.3540   18.1850 C   0  0  0  0  0  0  0  0  0  0  0  0
    3.2930    4.7880   19.2550 C   0  0  0  0  0  0  0  0  0  0  0  0
    3.4940    3.5040   19.8580 C   0  0  0  0  0  0  0  0  0  0  0  0
    2.6590    3.1280   20.9150 C   0  0  0  0  0  0  0  0  0  0  0  0
    1.6810    3.9390   21.3620 N   0  0  0  0  0  0  0  0  0  0  0  0
    1.4830    5.1590   20.7890 N   0  0  0  0  0  0  0  0  0  0  0  0
    2.2510    5.5780   19.7780 C   0  0  0  0  0  0  0  0  0  0  0  0
    1.9910    6.8400   19.2520 C   0  0  0  0  0  0  0  0  0  0  0  0
    4.3570    7.0270   16.8490 H   0  0  0  0  0  0  0  0  0  0  0  0
    1.1770    7.4150   19.6920 H   0  0  0  0  0  0  0  0  0  0  0  0
    4.5770    2.5770   19.3720 C   0  0  0  0  0  0  0  0  0  0  0  0
    5.2540    2.3170   20.1920 H   0  0  0  0  0  0  0  0  0  0  0  0
    4.1930    1.6320   18.9800 H   0  0  0  0  0  0  0  0  0  0  0  0
    5.1340    3.0430   18.5520 H   0  0  0  0  0  0  0  0  0  0  0  0
    2.7750    1.8180   21.6330 C   0  0  0  0  0  0  0  0  0  0  0  0
    2.2150    1.8380   22.5760 H   0  0  0  0  0  0  0  0  0  0  0  0
    3.8200    1.6050   21.8770 H   0  0  0  0  0  0  0  0  0  0  0  0
    2.3640    1.0090   21.0230 H   0  0  0  0  0  0  0  0  0  0  0  0
    5.0840    4.6550   17.6290 O   0  0  0  0  0  0  0  0  0  0  0  0
    5.7700    5.2810   17.3460 H   0  0  0  0  0  0  0  0  0  0  0  0
  1 19  1  0  0  0  0
  2  8  1  0  0  0  0
  2  1  1  0  0  0  0
  3  9  1  0  0  0  0
  3  2  1  0  0  0  0
  4  3  1  0  0  0  0
  4  5  1  0  0  0  0
  5 12  1  0  0  0  0
  5  6  1  0  0  0  0
  6  1  1  0  0  0  0
  6 13  1  0  0  0  0
  6 14  1  0  0  0  0
  7  2  1  0  0  0  0
 10  3  1  0  0  0  0
 11  5  1  0  0  0  0
 15 24  1  0  0  0  0
 15 30  1  0  0  0  0
 16 15  2  0  0  0  0
 17 18  2  0  0  0  0
 17 16  1  0  0  0  0
 18 23  1  0  0  0  0
 19 20  2  0  0  0  0
 19 18  1  0  0  0  0
 20 21  1  0  0  0  0
 21 28  1  0  0  0  0
 21 22  2  0  0  0  0
 22 29  1  0  0  0  0
 23 22  1  0  0  0  0
 23 24  2  0  0  0  0
 25 16  1  0  0  0  0
 26 17  1  0  0  0  0
 27 20  1  0  0  0  0
 30 33  1  0  0  0  0
 30 32  1  0  0  0  0
 31 30  1  0  0  0  0
 34  4  1  0  0  0  0
 34 35  1  0  0  0  0
 36 34  1  0  0  0  0
 37 34  1  0  0  0  0
 37 38  1  0  0  0  0
 37 40  1  0  0  0  0
 39 37  1  0  0  0  0
 40 49  1  0  0  0  0
 41 42  1  0  0  0  0
 41 40  2  0  0  0  0
 42 43  2  0  0  0  0
 43 48  1  0  0  0  0
 43 44  1  0  0  0  0
 44 45  2  0  0  0  0
 45 46  1  0  0  0  0
 45 56  1  0  0  0  0
 47 46  2  0  0  0  0
 48 47  1  0  0  0  0
 49 51  1  0  0  0  0
 49 48  2  0  0  0  0
 50 41  1  0  0  0  0
 52 44  1  0  0  0  0
 52 53  1  0  0  0  0
 54 52  1  0  0  0  0
 55 52  1  0  0  0  0
 56 58  1  0  0  0  0
 56 57  1  0  0  0  0
 59 56  1  0  0  0  0
 60 42  1  0  0  0  0
 61 60  1  0  0  0  0
M  END
>  <MODEL>
17

>  <REMARK>
 VINA RESULT:    -7.496      1.548      2.537
 INTER + INTRA:          -8.909
 INTER:                  -8.427
 INTRA:                  -0.482
 UNBOUND:                 1.216
  Name = 
  8 active torsions:
  status: ('A' for Active; 'I' for Inactive)
    1  A    between atoms: C_1  and  C_2
    2  A    between atoms: C_6  and  N_7
    3  A    between atoms: N_10  and  C_11
    4  A    between atoms: C_11  and  C_12
    5  A    between atoms: C_12  and  C_13
    6  A    between atoms: C_15  and  O_16
    7  A    between atoms: C_18  and  C_19
    8  A    between atoms: C_20  and  C_21
                            x       y       z     vdW  Elec       q    Type
                         _______ _______ _______ _____ _____    ______ ____

>  <TORSDO>
F 8

$$$$
=
 OpenBabel07192307433D

 61 65  0  0  0  0  0  0  0  0999 V2000
    1.9940    7.7580   19.8030 N   0  0  0  0  0  0  0  0  0  0  0  0
    1.2580    6.7660   20.6210 C   0  0  0  0  0  0  0  0  0  0  0  0
    2.0760    5.4610   20.7360 C   0  0  0  0  0  0  0  0  0  0  0  0
    2.2940    4.7760   19.4350 N   0  0  0  0  0  0  0  0  0  0  0  0
    2.3030    5.7510   18.3180 C   0  0  0  0  0  0  0  0  0  0  0  0
    2.7690    7.1790   18.6820 C   0  0  0  0  0  0  0  0  0  0  0  0
    0.2740    6.5400   20.1880 H   0  0  0  0  0  0  0  0  0  0  0  0
    1.0920    7.1730   21.6270 H   0  0  0  0  0  0  0  0  0  0  0  0
    3.0370    5.7100   21.2060 H   0  0  0  0  0  0  0  0  0  0  0  0
    1.5500    4.7770   21.4110 H   0  0  0  0  0  0  0  0  0  0  0  0
    1.2730    5.8090   17.9460 H   0  0  0  0  0  0  0  0  0  0  0  0
    2.8920    5.3800   17.4700 H   0  0  0  0  0  0  0  0  0  0  0  0
    3.8200    7.1380   18.9960 H   0  0  0  0  0  0  0  0  0  0  0  0
    2.7460    7.8170   17.7890 H   0  0  0  0  0  0  0  0  0  0  0  0
   -0.9570   10.9400   22.4440 C   0  0  0  0  0  0  0  0  0  0  0  0
   -0.1500    9.8880   22.8500 C   0  0  0  0  0  0  0  0  0  0  0  0
    0.5650    9.1920   21.8820 C   0  0  0  0  0  0  0  0  0  0  0  0
    0.4720    9.5470   20.5250 C   0  0  0  0  0  0  0  0  0  0  0  0
    1.1840    8.8740   19.4900 C   0  0  0  0  0  0  0  0  0  0  0  0
    1.0310    9.3140   18.1670 C   0  0  0  0  0  0  0  0  0  0  0  0
    0.2050   10.3940   17.8700 C   0  0  0  0  0  0  0  0  0  0  0  0
   -0.4840   11.0400   18.8950 C   0  0  0  0  0  0  0  0  0  0  0  0
   -0.3700   10.6400   20.2170 C   0  0  0  0  0  0  0  0  0  0  0  0
   -1.0670   11.3160   21.1490 N   0  0  0  0  0  0  0  0  0  0  0  0
   -0.0710    9.6130   23.8960 H   0  0  0  0  0  0  0  0  0  0  0  0
    1.2070    8.3690   22.1860 H   0  0  0  0  0  0  0  0  0  0  0  0
    1.5430    8.8110   17.3530 H   0  0  0  0  0  0  0  0  0  0  0  0
    0.0900   10.7300   16.8430 H   0  0  0  0  0  0  0  0  0  0  0  0
   -1.1290   11.8820   18.6570 H   0  0  0  0  0  0  0  0  0  0  0  0
   -1.7330   11.7280   23.4550 C   0  0  0  0  0  0  0  0  0  0  0  0
   -2.4150   11.0700   24.0010 H   0  0  0  0  0  0  0  0  0  0  0  0
   -2.3100   12.5170   22.9640 H   0  0  0  0  0  0  0  0  0  0  0  0
   -1.0610   12.2000   24.1790 H   0  0  0  0  0  0  0  0  0  0  0  0
    3.5220    3.9560   19.4490 C   0  0  0  0  0  0  0  0  0  0  0  0
    3.5380    3.3380   20.3560 H   0  0  0  0  0  0  0  0  0  0  0  0
    3.5120    3.2620   18.5990 H   0  0  0  0  0  0  0  0  0  0  0  0
    4.8320    4.7700   19.4190 C   0  0  0  0  0  0  0  0  0  0  0  0
    5.5700    4.3740   20.1270 H   0  0  0  0  0  0  0  0  0  0  0  0
    4.6110    5.7850   19.7750 H   0  0  0  0  0  0  0  0  0  0  0  0
    5.4500    4.8620   18.0430 C   0  0  0  0  0  0  0  0  0  0  0  0
    6.4570    5.7790   17.7650 C   0  0  0  0  0  0  0  0  0  0  0  0
    7.0270    5.8270   16.4890 C   0  0  0  0  0  0  0  0  0  0  0  0
    6.6110    4.9670   15.4340 C   0  0  0  0  0  0  0  0  0  0  0  0
    7.1260    4.9370   14.0970 C   0  0  0  0  0  0  0  0  0  0  0  0
    6.5940    4.0040   13.2010 C   0  0  0  0  0  0  0  0  0  0  0  0
    5.6160    3.1540   13.5670 N   0  0  0  0  0  0  0  0  0  0  0  0
    5.1200    3.1820   14.8360 N   0  0  0  0  0  0  0  0  0  0  0  0
    5.5890    4.0460   15.7410 C   0  0  0  0  0  0  0  0  0  0  0  0
    5.0350    4.0070   17.0160 C   0  0  0  0  0  0  0  0  0  0  0  0
    6.7990    6.4460   18.5500 H   0  0  0  0  0  0  0  0  0  0  0  0
    4.2520    3.2760   17.2070 H   0  0  0  0  0  0  0  0  0  0  0  0
    8.2150    5.8820   13.6620 C   0  0  0  0  0  0  0  0  0  0  0  0
    8.7160    5.5000   12.7670 H   0  0  0  0  0  0  0  0  0  0  0  0
    7.8450    6.8770   13.4050 H   0  0  0  0  0  0  0  0  0  0  0  0
    8.9380    6.0250   14.4710 H   0  0  0  0  0  0  0  0  0  0  0  0
    7.0550    3.8670   11.7820 C   0  0  0  0  0  0  0  0  0  0  0  0
    6.7870    2.8850   11.3770 H   0  0  0  0  0  0  0  0  0  0  0  0
    8.1430    3.9630   11.7210 H   0  0  0  0  0  0  0  0  0  0  0  0
    6.5810    4.6240   11.1500 H   0  0  0  0  0  0  0  0  0  0  0  0
    8.0270    6.7420   16.2770 O   0  0  0  0  0  0  0  0  0  0  0  0
    8.2110    6.7960   15.3250 H   0  0  0  0  0  0  0  0  0  0  0  0
  1  2  1  0  0  0  0
  2  3  1  0  0  0  0
  2  8  1  0  0  0  0
  3  9  1  0  0  0  0
  3 10  1  0  0  0  0
  4 34  1  0  0  0  0
  4  3  1  0  0  0  0
  5  6  1  0  0  0  0
  5  4  1  0  0  0  0
  6 13  1  0  0  0  0
  6  1  1  0  0  0  0
  7  2  1  0  0  0  0
 11  5  1  0  0  0  0
 12  5  1  0  0  0  0
 14  6  1  0  0  0  0
 15 16  1  0  0  0  0
 15 30  1  0  0  0  0
 16 25  1  0  0  0  0
 17 26  1  0  0  0  0
 17 16  2  0  0  0  0
 18 17  1  0  0  0  0
 19  1  1  0  0  0  0
 19 18  2  0  0  0  0
 20 19  1  0  0  0  0
 21 20  2  0  0  0  0
 21 22  1  0  0  0  0
 22 23  2  0  0  0  0
 23 18  1  0  0  0  0
 23 24  1  0  0  0  0
 24 15  2  0  0  0  0
 27 20  1  0  0  0  0
 28 21  1  0  0  0  0
 29 22  1  0  0  0  0
 30 31  1  0  0  0  0
 30 33  1  0  0  0  0
 32 30  1  0  0  0  0
 34 35  1  0  0  0  0
 36 34  1  0  0  0  0
 37 34  1  0  0  0  0
 37 39  1  0  0  0  0
 37 38  1  0  0  0  0
 40 37  1  0  0  0  0
 41 40  1  0  0  0  0
 41 50  1  0  0  0  0
 42 41  2  0  0  0  0
 43 48  1  0  0  0  0
 43 42  1  0  0  0  0
 44 43  2  0  0  0  0
 45 46  2  0  0  0  0
 45 44  1  0  0  0  0
 46 47  1  0  0  0  0
 47 48  2  0  0  0  0
 48 49  1  0  0  0  0
 49 51  1  0  0  0  0
 49 40  2  0  0  0  0
 52 44  1  0  0  0  0
 52 55  1  0  0  0  0
 53 52  1  0  0  0  0
 54 52  1  0  0  0  0
 56 45  1  0  0  0  0
 57 56  1  0  0  0  0
 58 56  1  0  0  0  0
 59 56  1  0  0  0  0
 60 42  1  0  0  0  0
 61 60  1  0  0  0  0
M  END
>  <MODEL>
18

>  <REMARK>
 VINA RESULT:    -7.457      2.718      5.217
 INTER + INTRA:          -8.856
 INTER:                  -9.335
 INTRA:                   0.478
 UNBOUND:                 1.216
  Name = 
  8 active torsions:
  status: ('A' for Active; 'I' for Inactive)
    1  A    between atoms: C_1  and  C_2
    2  A    between atoms: C_6  and  N_7
    3  A    between atoms: N_10  and  C_11
    4  A    between atoms: C_11  and  C_12
    5  A    between atoms: C_12  and  C_13
    6  A    between atoms: C_15  and  O_16
    7  A    between atoms: C_18  and  C_19
    8  A    between atoms: C_20  and  C_21
                            x       y       z     vdW  Elec       q    Type
                         _______ _______ _______ _____ _____    ______ ____

>  <TORSDO>
F 8

$$$$
=
 OpenBabel07192307433D

 61 65  0  0  0  0  0  0  0  0999 V2000
    3.8000    5.9250   18.1430 N   0  0  0  0  0  0  0  0  0  0  0  0
    3.4970    5.9100   19.5940 C   0  0  0  0  0  0  0  0  0  0  0  0
    2.1440    6.6050   19.8610 C   0  0  0  0  0  0  0  0  0  0  0  0
    2.1310    8.0460   19.4970 N   0  0  0  0  0  0  0  0  0  0  0  0
    3.0860    8.3240   18.3970 C   0  0  0  0  0  0  0  0  0  0  0  0
    3.3550    7.1470   17.4330 C   0  0  0  0  0  0  0  0  0  0  0  0
    4.2830    6.4130   20.1730 H   0  0  0  0  0  0  0  0  0  0  0  0
    3.4400    4.8720   19.9440 H   0  0  0  0  0  0  0  0  0  0  0  0
    1.3720    6.0590   19.3010 H   0  0  0  0  0  0  0  0  0  0  0  0
    1.9050    6.5080   20.9260 H   0  0  0  0  0  0  0  0  0  0  0  0
    4.0340    8.6050   18.8720 H   0  0  0  0  0  0  0  0  0  0  0  0
    2.7830    9.2060   17.8200 H   0  0  0  0  0  0  0  0  0  0  0  0
    2.4240    6.9000   16.9080 H   0  0  0  0  0  0  0  0  0  0  0  0
    4.0660    7.4560   16.6570 H   0  0  0  0  0  0  0  0  0  0  0  0
    6.2990    4.1000   14.1140 C   0  0  0  0  0  0  0  0  0  0  0  0
    4.9920    4.5390   14.2600 C   0  0  0  0  0  0  0  0  0  0  0  0
    4.5870    5.0050   15.5050 C   0  0  0  0  0  0  0  0  0  0  0  0
    5.4820    5.0320   16.5900 C   0  0  0  0  0  0  0  0  0  0  0  0
    5.1250    5.5030   17.8870 C   0  0  0  0  0  0  0  0  0  0  0  0
    6.0960    5.5000   18.8980 C   0  0  0  0  0  0  0  0  0  0  0  0
    7.3880    5.0520   18.6400 C   0  0  0  0  0  0  0  0  0  0  0  0
    7.7190    4.5950   17.3650 C   0  0  0  0  0  0  0  0  0  0  0  0
    6.7940    4.5740   16.3330 C   0  0  0  0  0  0  0  0  0  0  0  0
    7.1910    4.1180   15.1310 N   0  0  0  0  0  0  0  0  0  0  0  0
    4.2990    4.5250   13.4260 H   0  0  0  0  0  0  0  0  0  0  0  0
    3.5670    5.3580   15.6330 H   0  0  0  0  0  0  0  0  0  0  0  0
    5.8530    5.8330   19.9020 H   0  0  0  0  0  0  0  0  0  0  0  0
    8.1360    5.0510   19.4270 H   0  0  0  0  0  0  0  0  0  0  0  0
    8.7300    4.2440   17.1680 H   0  0  0  0  0  0  0  0  0  0  0  0
    6.7830    3.6040   12.7860 C   0  0  0  0  0  0  0  0  0  0  0  0
    6.6660    2.5190   12.7240 H   0  0  0  0  0  0  0  0  0  0  0  0
    7.8370    3.8620   12.6430 H   0  0  0  0  0  0  0  0  0  0  0  0
    6.2110    4.0570   11.9690 H   0  0  0  0  0  0  0  0  0  0  0  0
    0.7700    8.5120   19.1630 C   0  0  0  0  0  0  0  0  0  0  0  0
    0.3350    7.8540   18.3990 H   0  0  0  0  0  0  0  0  0  0  0  0
    0.1240    8.4310   20.0470 H   0  0  0  0  0  0  0  0  0  0  0  0
    0.7040    9.9550   18.6230 C   0  0  0  0  0  0  0  0  0  0  0  0
    0.5490    9.9750   17.5380 H   0  0  0  0  0  0  0  0  0  0  0  0
    1.6860   10.4220   18.7800 H   0  0  0  0  0  0  0  0  0  0  0  0
   -0.3490   10.8020   19.3010 C   0  0  0  0  0  0  0  0  0  0  0  0
   -1.4930   11.2080   18.6220 C   0  0  0  0  0  0  0  0  0  0  0  0
   -2.4620   11.9720   19.2800 C   0  0  0  0  0  0  0  0  0  0  0  0
   -2.3280   12.3680   20.6410 C   0  0  0  0  0  0  0  0  0  0  0  0
   -3.2580   13.1470   21.4040 C   0  0  0  0  0  0  0  0  0  0  0  0
   -2.9530   13.4240   22.7400 C   0  0  0  0  0  0  0  0  0  0  0  0
   -1.8150   12.9830   23.3090 N   0  0  0  0  0  0  0  0  0  0  0  0
   -0.9260   12.2460   22.5860 N   0  0  0  0  0  0  0  0  0  0  0  0
   -1.1610   11.9430   21.3060 C   0  0  0  0  0  0  0  0  0  0  0  0
   -0.2080   11.1800   20.6400 C   0  0  0  0  0  0  0  0  0  0  0  0
   -1.6260   10.9180   17.5850 H   0  0  0  0  0  0  0  0  0  0  0  0
    0.6760   10.8710   21.1970 H   0  0  0  0  0  0  0  0  0  0  0  0
   -4.5340   13.6570   20.7880 C   0  0  0  0  0  0  0  0  0  0  0  0
   -4.3190   14.2160   19.8720 H   0  0  0  0  0  0  0  0  0  0  0  0
   -5.2260   12.8600   20.5060 H   0  0  0  0  0  0  0  0  0  0  0  0
   -5.0720   14.2900   21.5020 H   0  0  0  0  0  0  0  0  0  0  0  0
   -3.8470   14.2180   23.6430 C   0  0  0  0  0  0  0  0  0  0  0  0
   -3.8650   15.2740   23.3470 H   0  0  0  0  0  0  0  0  0  0  0  0
   -3.4890   14.1720   24.6760 H   0  0  0  0  0  0  0  0  0  0  0  0
   -4.8740   13.8450   23.5910 H   0  0  0  0  0  0  0  0  0  0  0  0
   -3.5770   12.3310   18.5650 O   0  0  0  0  0  0  0  0  0  0  0  0
   -4.2410   12.6920   19.1740 H   0  0  0  0  0  0  0  0  0  0  0  0
  1  2  1  0  0  0  0
  2  3  1  0  0  0  0
  2  8  1  0  0  0  0
  2  7  1  0  0  0  0
  3 10  1  0  0  0  0
  4  3  1  0  0  0  0
  5 11  1  0  0  0  0
  5  4  1  0  0  0  0
  6  1  1  0  0  0  0
  6  5  1  0  0  0  0
  9  3  1  0  0  0  0
 12  5  1  0  0  0  0
 13  6  1  0  0  0  0
 14  6  1  0  0  0  0
 15 16  2  0  0  0  0
 15 24  1  0  0  0  0
 16 17  1  0  0  0  0
 17 26  1  0  0  0  0
 17 18  2  0  0  0  0
 18 19  1  0  0  0  0
 19  1  1  0  0  0  0
 19 20  2  0  0  0  0
 20 27  1  0  0  0  0
 21 20  1  0  0  0  0
 21 28  1  0  0  0  0
 22 21  2  0  0  0  0
 23 18  1  0  0  0  0
 23 22  1  0  0  0  0
 24 23  2  0  0  0  0
 25 16  1  0  0  0  0
 29 22  1  0  0  0  0
 30 15  1  0  0  0  0
 31 30  1  0  0  0  0
 32 30  1  0  0  0  0
 33 30  1  0  0  0  0
 34  4  1  0  0  0  0
 34 36  1  0  0  0  0
 35 34  1  0  0  0  0
 37 39  1  0  0  0  0
 37 34  1  0  0  0  0
 37 40  1  0  0  0  0
 38 37  1  0  0  0  0
 40 49  1  0  0  0  0
 41 42  1  0  0  0  0
 41 40  2  0  0  0  0
 42 43  2  0  0  0  0
 43 48  1  0  0  0  0
 43 44  1  0  0  0  0
 44 45  2  0  0  0  0
 45 46  1  0  0  0  0
 45 56  1  0  0  0  0
 47 46  2  0  0  0  0
 48 47  1  0  0  0  0
 49 51  1  0  0  0  0
 49 48  2  0  0  0  0
 50 41  1  0  0  0  0
 52 44  1  0  0  0  0
 52 55  1  0  0  0  0
 53 52  1  0  0  0  0
 54 52  1  0  0  0  0
 56 58  1  0  0  0  0
 57 56  1  0  0  0  0
 59 56  1  0  0  0  0
 60 61  1  0  0  0  0
 60 42  1  0  0  0  0
M  END
>  <MODEL>
19

>  <REMARK>
 VINA RESULT:    -7.293      2.980     11.407
 INTER + INTRA:          -8.635
 INTER:                  -8.451
 INTRA:                  -0.184
 UNBOUND:                 1.216
  Name = 
  8 active torsions:
  status: ('A' for Active; 'I' for Inactive)
    1  A    between atoms: C_1  and  C_2
    2  A    between atoms: C_6  and  N_7
    3  A    between atoms: N_10  and  C_11
    4  A    between atoms: C_11  and  C_12
    5  A    between atoms: C_12  and  C_13
    6  A    between atoms: C_15  and  O_16
    7  A    between atoms: C_18  and  C_19
    8  A    between atoms: C_20  and  C_21
                            x       y       z     vdW  Elec       q    Type
                         _______ _______ _______ _____ _____    ______ ____

>  <TORSDO>
F 8

$$$$
=
 OpenBabel07192307433D

 61 65  0  0  0  0  0  0  0  0999 V2000
    0.0790   11.6680   21.5550 N   0  0  0  0  0  0  0  0  0  0  0  0
   -0.9360   10.6210   21.8170 C   0  0  0  0  0  0  0  0  0  0  0  0
   -0.2500    9.2470   21.9850 C   0  0  0  0  0  0  0  0  0  0  0  0
    0.4550    8.7780   20.7640 N   0  0  0  0  0  0  0  0  0  0  0  0
    0.9210    9.9250   19.9480 C   0  0  0  0  0  0  0  0  0  0  0  0
    1.2270   11.2220   20.7310 C   0  0  0  0  0  0  0  0  0  0  0  0
   -1.6710   10.5620   21.0020 H   0  0  0  0  0  0  0  0  0  0  0  0
   -1.4810   10.8630   22.7380 H   0  0  0  0  0  0  0  0  0  0  0  0
    0.4490    9.3250   22.8280 H   0  0  0  0  0  0  0  0  0  0  0  0
   -1.0110    8.5080   22.2580 H   0  0  0  0  0  0  0  0  0  0  0  0
    0.1240   10.1380   19.2260 H   0  0  0  0  0  0  0  0  0  0  0  0
    1.7920    9.6530   19.3390 H   0  0  0  0  0  0  0  0  0  0  0  0
    2.0650   11.0340   21.4130 H   0  0  0  0  0  0  0  0  0  0  0  0
    1.5690   12.0020   20.0400 H   0  0  0  0  0  0  0  0  0  0  0  0
   -3.6360   14.5980   23.4030 C   0  0  0  0  0  0  0  0  0  0  0  0
   -3.0730   13.4250   23.8790 C   0  0  0  0  0  0  0  0  0  0  0  0
   -2.0410   12.8440   23.1500 C   0  0  0  0  0  0  0  0  0  0  0  0
   -1.5800   13.4350   21.9600 C   0  0  0  0  0  0  0  0  0  0  0  0
   -0.5240   12.8890   21.1740 C   0  0  0  0  0  0  0  0  0  0  0  0
   -0.1300   13.5630   20.0090 C   0  0  0  0  0  0  0  0  0  0  0  0
   -0.7540   14.7480   19.6290 C   0  0  0  0  0  0  0  0  0  0  0  0
   -1.7860   15.2670   20.4100 C   0  0  0  0  0  0  0  0  0  0  0  0
   -2.2140   14.6360   21.5680 C   0  0  0  0  0  0  0  0  0  0  0  0
   -3.2150   15.2010   22.2670 N   0  0  0  0  0  0  0  0  0  0  0  0
   -3.4210   12.9670   24.7980 H   0  0  0  0  0  0  0  0  0  0  0  0
   -1.5840   11.9270   23.5140 H   0  0  0  0  0  0  0  0  0  0  0  0
    0.6570   13.1640   19.3760 H   0  0  0  0  0  0  0  0  0  0  0  0
   -0.4460   15.2650   18.7250 H   0  0  0  0  0  0  0  0  0  0  0  0
   -2.2710   16.1920   20.1090 H   0  0  0  0  0  0  0  0  0  0  0  0
   -4.7400   15.2670   24.1650 C   0  0  0  0  0  0  0  0  0  0  0  0
   -4.6950   16.3490   24.0200 H   0  0  0  0  0  0  0  0  0  0  0  0
   -4.6580   15.0420   25.2320 H   0  0  0  0  0  0  0  0  0  0  0  0
   -5.7190   14.9160   23.8200 H   0  0  0  0  0  0  0  0  0  0  0  0
    1.5640    7.8610   21.0930 C   0  0  0  0  0  0  0  0  0  0  0  0
    2.4600    8.1540   20.5310 H   0  0  0  0  0  0  0  0  0  0  0  0
    1.8200    7.9560   22.1570 H   0  0  0  0  0  0  0  0  0  0  0  0
    1.2820    6.3790   20.7750 C   0  0  0  0  0  0  0  0  0  0  0  0
    0.2370    6.2190   20.4830 H   0  0  0  0  0  0  0  0  0  0  0  0
    1.4110    5.8010   21.7000 H   0  0  0  0  0  0  0  0  0  0  0  0
    2.1950    5.8080   19.7150 C   0  0  0  0  0  0  0  0  0  0  0  0
    2.3220    4.4350   19.5360 C   0  0  0  0  0  0  0  0  0  0  0  0
    3.1570    3.9340   18.5320 C   0  0  0  0  0  0  0  0  0  0  0  0
    3.9060    4.7830   17.6690 C   0  0  0  0  0  0  0  0  0  0  0  0
    4.7870    4.3720   16.6150 C   0  0  0  0  0  0  0  0  0  0  0  0
    5.4280    5.3620   15.8620 C   0  0  0  0  0  0  0  0  0  0  0  0
    5.2390    6.6710   16.1140 N   0  0  0  0  0  0  0  0  0  0  0  0
    4.4060    7.0660   17.1180 N   0  0  0  0  0  0  0  0  0  0  0  0
    3.7600    6.1690   17.8700 C   0  0  0  0  0  0  0  0  0  0  0  0
    2.9220    6.6520   18.8690 C   0  0  0  0  0  0  0  0  0  0  0  0
    1.7600    3.7620   20.1760 H   0  0  0  0  0  0  0  0  0  0  0  0
    2.8380    7.7320   18.9840 H   0  0  0  0  0  0  0  0  0  0  0  0
    5.0200    2.9140   16.3190 C   0  0  0  0  0  0  0  0  0  0  0  0
    5.6740    2.4720   17.0770 H   0  0  0  0  0  0  0  0  0  0  0  0
    4.1030    2.3210   16.3220 H   0  0  0  0  0  0  0  0  0  0  0  0
    5.4570    2.7960   15.3230 H   0  0  0  0  0  0  0  0  0  0  0  0
    6.3620    5.0620   14.7300 C   0  0  0  0  0  0  0  0  0  0  0  0
    5.8060    4.7800   13.8280 H   0  0  0  0  0  0  0  0  0  0  0  0
    7.0190    4.2250   14.9860 H   0  0  0  0  0  0  0  0  0  0  0  0
    6.9630    5.9420   14.4850 H   0  0  0  0  0  0  0  0  0  0  0  0
    3.2310    2.5710   18.3920 O   0  0  0  0  0  0  0  0  0  0  0  0
    2.3330    2.2040   18.3870 H   0  0  0  0  0  0  0  0  0  0  0  0
  1  2  1  0  0  0  0
  2  3  1  0  0  0  0
  2  8  1  0  0  0  0
  3 10  1  0  0  0  0
  3  9  1  0  0  0  0
  4 34  1  0  0  0  0
  4  3  1  0  0  0  0
  5  6  1  0  0  0  0
  5  4  1  0  0  0  0
  6 13  1  0  0  0  0
  6  1  1  0  0  0  0
  7  2  1  0  0  0  0
 11  5  1  0  0  0  0
 12  5  1  0  0  0  0
 14  6  1  0  0  0  0
 15 16  1  0  0  0  0
 15 30  1  0  0  0  0
 16 25  1  0  0  0  0
 17 26  1  0  0  0  0
 17 16  2  0  0  0  0
 18 17  1  0  0  0  0
 19  1  1  0  0  0  0
 19 18  2  0  0  0  0
 20 19  1  0  0  0  0
 21 20  2  0  0  0  0
 21 22  1  0  0  0  0
 22 23  2  0  0  0  0
 23 18  1  0  0  0  0
 23 24  1  0  0  0  0
 24 15  2  0  0  0  0
 27 20  1  0  0  0  0
 28 21  1  0  0  0  0
 29 22  1  0  0  0  0
 30 32  1  0  0  0  0
 31 30  1  0  0  0  0
 33 30  1  0  0  0  0
 34 36  1  0  0  0  0
 35 34  1  0  0  0  0
 37 34  1  0  0  0  0
 37 39  1  0  0  0  0
 38 37  1  0  0  0  0
 40 37  1  0  0  0  0
 41 40  1  0  0  0  0
 41 50  1  0  0  0  0
 42 41  2  0  0  0  0
 43 48  1  0  0  0  0
 43 42  1  0  0  0  0
 44 43  2  0  0  0  0
 45 46  2  0  0  0  0
 45 44  1  0  0  0  0
 46 47  1  0  0  0  0
 47 48  2  0  0  0  0
 48 49  1  0  0  0  0
 49 51  1  0  0  0  0
 49 40  2  0  0  0  0
 52 54  1  0  0  0  0
 52 44  1  0  0  0  0
 52 53  1  0  0  0  0
 55 52  1  0  0  0  0
 56 58  1  0  0  0  0
 56 45  1  0  0  0  0
 57 56  1  0  0  0  0
 59 56  1  0  0  0  0
 60 42  1  0  0  0  0
 61 60  1  0  0  0  0
M  END
>  <MODEL>
20

>  <REMARK>
 VINA RESULT:    -7.257      2.252      3.083
 INTER + INTRA:          -8.586
 INTER:                  -8.732
 INTRA:                   0.146
 UNBOUND:                 1.216
  Name = 
  8 active torsions:
  status: ('A' for Active; 'I' for Inactive)
    1  A    between atoms: C_1  and  C_2
    2  A    between atoms: C_6  and  N_7
    3  A    between atoms: N_10  and  C_11
    4  A    between atoms: C_11  and  C_12
    5  A    between atoms: C_12  and  C_13
    6  A    between atoms: C_15  and  O_16
    7  A    between atoms: C_18  and  C_19
    8  A    between atoms: C_20  and  C_21
                            x       y       z     vdW  Elec       q    Type
                         _______ _______ _______ _____ _____    ______ ____

>  <TORSDO>
F 8

$$$$
=
 OpenBabel07192307433D

 61 65  0  0  0  0  0  0  0  0999 V2000
   -1.2990   10.9360   18.8860 N   0  0  0  0  0  0  0  0  0  0  0  0
   -0.3390   11.9210   19.4380 C   0  0  0  0  0  0  0  0  0  0  0  0
    0.9720   11.2130   19.8460 C   0  0  0  0  0  0  0  0  0  0  0  0
    0.7990   10.2170   20.9350 N   0  0  0  0  0  0  0  0  0  0  0  0
   -0.5680    9.6420   20.9160 C   0  0  0  0  0  0  0  0  0  0  0  0
   -1.2570    9.6040   19.5340 C   0  0  0  0  0  0  0  0  0  0  0  0
   -0.7560   12.4420   20.3110 H   0  0  0  0  0  0  0  0  0  0  0  0
   -0.1130   12.6770   18.6770 H   0  0  0  0  0  0  0  0  0  0  0  0
    1.3860   10.7340   18.9480 H   0  0  0  0  0  0  0  0  0  0  0  0
    1.6920   11.9710   20.1730 H   0  0  0  0  0  0  0  0  0  0  0  0
   -1.1760   10.2620   21.5870 H   0  0  0  0  0  0  0  0  0  0  0  0
   -0.5850    8.6400   21.3600 H   0  0  0  0  0  0  0  0  0  0  0  0
   -0.6880    8.9370   18.8740 H   0  0  0  0  0  0  0  0  0  0  0  0
   -2.2540    9.1580   19.6270 H   0  0  0  0  0  0  0  0  0  0  0  0
   -4.4190   13.7510   21.7390 C   0  0  0  0  0  0  0  0  0  0  0  0
   -3.1410   13.2730   21.9790 C   0  0  0  0  0  0  0  0  0  0  0  0
   -2.5180   12.5250   20.9860 C   0  0  0  0  0  0  0  0  0  0  0  0
   -3.1710   12.2610   19.7680 C   0  0  0  0  0  0  0  0  0  0  0  0
   -2.5810   11.5050   18.7130 C   0  0  0  0  0  0  0  0  0  0  0  0
   -3.3120   11.3090   17.5320 C   0  0  0  0  0  0  0  0  0  0  0  0
   -4.5870   11.8490   17.3890 C   0  0  0  0  0  0  0  0  0  0  0  0
   -5.1470   12.5860   18.4320 C   0  0  0  0  0  0  0  0  0  0  0  0
   -4.4670   12.8030   19.6190 C   0  0  0  0  0  0  0  0  0  0  0  0
   -5.0760   13.5250   20.5780 N   0  0  0  0  0  0  0  0  0  0  0  0
   -2.6310   13.4770   22.9140 H   0  0  0  0  0  0  0  0  0  0  0  0
   -1.5130   12.1480   21.1570 H   0  0  0  0  0  0  0  0  0  0  0  0
   -2.9010   10.7220   16.7170 H   0  0  0  0  0  0  0  0  0  0  0  0
   -5.1480   11.6930   16.4720 H   0  0  0  0  0  0  0  0  0  0  0  0
   -6.1440   13.0040   18.3150 H   0  0  0  0  0  0  0  0  0  0  0  0
   -5.1220   14.5750   22.7750 C   0  0  0  0  0  0  0  0  0  0  0  0
   -5.2040   14.0140   23.7090 H   0  0  0  0  0  0  0  0  0  0  0  0
   -6.1230   14.8500   22.4300 H   0  0  0  0  0  0  0  0  0  0  0  0
   -4.5680   15.4980   22.9790 H   0  0  0  0  0  0  0  0  0  0  0  0
    1.8310    9.1620   20.8790 C   0  0  0  0  0  0  0  0  0  0  0  0
    2.3310    9.1920   19.9030 H   0  0  0  0  0  0  0  0  0  0  0  0
    2.6050    9.3610   21.6320 H   0  0  0  0  0  0  0  0  0  0  0  0
    1.2920    7.7310   21.0800 C   0  0  0  0  0  0  0  0  0  0  0  0
    0.2090    7.6790   20.9140 H   0  0  0  0  0  0  0  0  0  0  0  0
    1.4320    7.4590   22.1350 H   0  0  0  0  0  0  0  0  0  0  0  0
    1.9860    6.7020   20.2180 C   0  0  0  0  0  0  0  0  0  0  0  0
    1.8110    5.3410   20.4390 C   0  0  0  0  0  0  0  0  0  0  0  0
    2.4470    4.4100   19.6110 C   0  0  0  0  0  0  0  0  0  0  0  0
    3.2900    4.7990   18.5320 C   0  0  0  0  0  0  0  0  0  0  0  0
    3.9860    3.9290   17.6300 C   0  0  0  0  0  0  0  0  0  0  0  0
    4.7610    4.5040   16.6180 C   0  0  0  0  0  0  0  0  0  0  0  0
    4.8670    5.8400   16.4860 N   0  0  0  0  0  0  0  0  0  0  0  0
    4.2110    6.6710   17.3440 N   0  0  0  0  0  0  0  0  0  0  0  0
    3.4500    6.1830   18.3280 C   0  0  0  0  0  0  0  0  0  0  0  0
    2.8070    7.0970   19.1570 C   0  0  0  0  0  0  0  0  0  0  0  0
    1.1700    5.0120   21.2510 H   0  0  0  0  0  0  0  0  0  0  0  0
    2.9580    8.1570   18.9580 H   0  0  0  0  0  0  0  0  0  0  0  0
    3.8880    2.4320   17.7630 C   0  0  0  0  0  0  0  0  0  0  0  0
    3.4820    1.9940   16.8460 H   0  0  0  0  0  0  0  0  0  0  0  0
    4.8540    1.9500   17.9320 H   0  0  0  0  0  0  0  0  0  0  0  0
    3.2610    2.1680   18.6200 H   0  0  0  0  0  0  0  0  0  0  0  0
    5.5260    3.7040   15.6090 C   0  0  0  0  0  0  0  0  0  0  0  0
    5.8060    4.3230   14.7490 H   0  0  0  0  0  0  0  0  0  0  0  0
    4.9180    2.8750   15.2350 H   0  0  0  0  0  0  0  0  0  0  0  0
    6.4500    3.3150   16.0490 H   0  0  0  0  0  0  0  0  0  0  0  0
    2.2260    3.0800   19.8670 O   0  0  0  0  0  0  0  0  0  0  0  0
    2.4250    2.5660   19.0680 H   0  0  0  0  0  0  0  0  0  0  0  0
  1  2  1  0  0  0  0
  1  6  1  0  0  0  0
  2  3  1  0  0  0  0
  2  7  1  0  0  0  0
  3 10  1  0  0  0  0
  3  4  1  0  0  0  0
  5  4  1  0  0  0  0
  5 12  1  0  0  0  0
  5 11  1  0  0  0  0
  6 14  1  0  0  0  0
  6  5  1  0  0  0  0
  8  2  1  0  0  0  0
  9  3  1  0  0  0  0
 13  6  1  0  0  0  0
 15 16  1  0  0  0  0
 15 30  1  0  0  0  0
 16 25  1  0  0  0  0
 17 26  1  0  0  0  0
 17 16  2  0  0  0  0
 18 17  1  0  0  0  0
 19  1  1  0  0  0  0
 19 18  2  0  0  0  0
 20 19  1  0  0  0  0
 21 20  2  0  0  0  0
 21 22  1  0  0  0  0
 22 23  2  0  0  0  0
 23 18  1  0  0  0  0
 23 24  1  0  0  0  0
 24 15  2  0  0  0  0
 27 20  1  0  0  0  0
 28 21  1  0  0  0  0
 29 22  1  0  0  0  0
 30 33  1  0  0  0  0
 30 31  1  0  0  0  0
 32 30  1  0  0  0  0
 34  4  1  0  0  0  0
 34 37  1  0  0  0  0
 34 36  1  0  0  0  0
 35 34  1  0  0  0  0
 37 39  1  0  0  0  0
 38 37  1  0  0  0  0
 40 41  1  0  0  0  0
 40 37  1  0  0  0  0
 41 50  1  0  0  0  0
 42 60  1  0  0  0  0
 42 41  2  0  0  0  0
 43 42  1  0  0  0  0
 44 52  1  0  0  0  0
 44 43  2  0  0  0  0
 45 44  1  0  0  0  0
 46 45  2  0  0  0  0
 46 47  1  0  0  0  0
 47 48  2  0  0  0  0
 48 43  1  0  0  0  0
 48 49  1  0  0  0  0
 49 40  2  0  0  0  0
 51 49  1  0  0  0  0
 52 54  1  0  0  0  0
 52 55  1  0  0  0  0
 53 52  1  0  0  0  0
 56 59  1  0  0  0  0
 56 45  1  0  0  0  0
 57 56  1  0  0  0  0
 58 56  1  0  0  0  0
 61 60  1  0  0  0  0
M  END
>  <MODEL>
21

>  <REMARK>
 VINA RESULT:    -7.226      2.175      2.993
 INTER + INTRA:          -8.545
 INTER:                  -8.924
 INTRA:                   0.379
 UNBOUND:                 1.216
  Name = 
  8 active torsions:
  status: ('A' for Active; 'I' for Inactive)
    1  A    between atoms: C_1  and  C_2
    2  A    between atoms: C_6  and  N_7
    3  A    between atoms: N_10  and  C_11
    4  A    between atoms: C_11  and  C_12
    5  A    between atoms: C_12  and  C_13
    6  A    between atoms: C_15  and  O_16
    7  A    between atoms: C_18  and  C_19
    8  A    between atoms: C_20  and  C_21
                            x       y       z     vdW  Elec       q    Type
                         _______ _______ _______ _____ _____    ______ ____

>  <TORSDO>
F 8

$$$$
=
 OpenBabel07192307433D

 61 65  0  0  0  0  0  0  0  0999 V2000
    2.5280    7.8140   19.2200 N   0  0  0  0  0  0  0  0  0  0  0  0
    2.5050    8.2980   17.8190 C   0  0  0  0  0  0  0  0  0  0  0  0
    2.2040    9.8120   17.7860 C   0  0  0  0  0  0  0  0  0  0  0  0
    0.8630   10.1670   18.3200 N   0  0  0  0  0  0  0  0  0  0  0  0
    0.4190    9.1820   19.3360 C   0  0  0  0  0  0  0  0  0  0  0  0
    1.5480    8.4720   20.1160 C   0  0  0  0  0  0  0  0  0  0  0  0
    1.7500    7.7650   17.2240 H   0  0  0  0  0  0  0  0  0  0  0  0
    3.4820    8.1180   17.3550 H   0  0  0  0  0  0  0  0  0  0  0  0
    2.9930   10.3210   18.3560 H   0  0  0  0  0  0  0  0  0  0  0  0
    2.2730   10.1600   16.7500 H   0  0  0  0  0  0  0  0  0  0  0  0
   -0.1600    8.4200   18.7980 H   0  0  0  0  0  0  0  0  0  0  0  0
   -0.2880    9.6300   20.0440 H   0  0  0  0  0  0  0  0  0  0  0  0
    2.0950    9.2190   20.7050 H   0  0  0  0  0  0  0  0  0  0  0  0
    1.1170    7.7730   20.8420 H   0  0  0  0  0  0  0  0  0  0  0  0
    4.9330    4.1650   16.6290 C   0  0  0  0  0  0  0  0  0  0  0  0
    4.9860    5.5470   16.5290 C   0  0  0  0  0  0  0  0  0  0  0  0
    4.2090    6.3030   17.4000 C   0  0  0  0  0  0  0  0  0  0  0  0
    3.3890    5.6800   18.3580 C   0  0  0  0  0  0  0  0  0  0  0  0
    2.5750    6.4020   19.2780 C   0  0  0  0  0  0  0  0  0  0  0  0
    1.8020    5.6850   20.2040 C   0  0  0  0  0  0  0  0  0  0  0  0
    1.8340    4.2940   20.2290 C   0  0  0  0  0  0  0  0  0  0  0  0
    2.6370    3.6050   19.3210 C   0  0  0  0  0  0  0  0  0  0  0  0
    3.4150    4.2670   18.3840 C   0  0  0  0  0  0  0  0  0  0  0  0
    4.1630    3.5300   17.5430 N   0  0  0  0  0  0  0  0  0  0  0  0
    5.6200    6.0330   15.7960 H   0  0  0  0  0  0  0  0  0  0  0  0
    4.2450    7.3870   17.3380 H   0  0  0  0  0  0  0  0  0  0  0  0
    1.1560    6.2030   20.9060 H   0  0  0  0  0  0  0  0  0  0  0  0
    1.2330    3.7440   20.9470 H   0  0  0  0  0  0  0  0  0  0  0  0
    2.6570    2.5180   19.3430 H   0  0  0  0  0  0  0  0  0  0  0  0
    5.7650    3.3120   15.7220 C   0  0  0  0  0  0  0  0  0  0  0  0
    6.0280    3.8680   14.8190 H   0  0  0  0  0  0  0  0  0  0  0  0
    5.2190    2.4060   15.4410 H   0  0  0  0  0  0  0  0  0  0  0  0
    6.6930    3.0070   16.2180 H   0  0  0  0  0  0  0  0  0  0  0  0
    0.8350   11.5440   18.8530 C   0  0  0  0  0  0  0  0  0  0  0  0
    1.5790   12.1550   18.3260 H   0  0  0  0  0  0  0  0  0  0  0  0
   -0.1430   11.9990   18.6500 H   0  0  0  0  0  0  0  0  0  0  0  0
    1.1340   11.6500   20.3630 C   0  0  0  0  0  0  0  0  0  0  0  0
    1.9360   12.3700   20.5670 H   0  0  0  0  0  0  0  0  0  0  0  0
    1.5280   10.6820   20.7010 H   0  0  0  0  0  0  0  0  0  0  0  0
   -0.0800   11.9960   21.1930 C   0  0  0  0  0  0  0  0  0  0  0  0
   -0.6050   11.0950   22.1120 C   0  0  0  0  0  0  0  0  0  0  0  0
   -1.7160   11.4500   22.8840 C   0  0  0  0  0  0  0  0  0  0  0  0
   -2.3550   12.7160   22.7650 C   0  0  0  0  0  0  0  0  0  0  0  0
   -3.4940   13.1760   23.5040 C   0  0  0  0  0  0  0  0  0  0  0  0
   -3.9720   14.4660   23.2530 C   0  0  0  0  0  0  0  0  0  0  0  0
   -3.3910   15.2670   22.3390 N   0  0  0  0  0  0  0  0  0  0  0  0
   -2.3110   14.8320   21.6310 N   0  0  0  0  0  0  0  0  0  0  0  0
   -1.8040   13.6120   21.8270 C   0  0  0  0  0  0  0  0  0  0  0  0
   -0.6960   13.2460   21.0700 C   0  0  0  0  0  0  0  0  0  0  0  0
   -0.1380   10.1220   22.2290 H   0  0  0  0  0  0  0  0  0  0  0  0
   -0.3030   13.9730   20.3610 H   0  0  0  0  0  0  0  0  0  0  0  0
   -4.1640   12.2960   24.5270 C   0  0  0  0  0  0  0  0  0  0  0  0
   -5.2440   12.2670   24.3540 H   0  0  0  0  0  0  0  0  0  0  0  0
   -3.8200   11.2610   24.4970 H   0  0  0  0  0  0  0  0  0  0  0  0
   -3.9500   12.6610   25.5370 H   0  0  0  0  0  0  0  0  0  0  0  0
   -5.1460   15.0640   23.9660 C   0  0  0  0  0  0  0  0  0  0  0  0
   -5.5800   15.8860   23.3840 H   0  0  0  0  0  0  0  0  0  0  0  0
   -4.8410   15.4720   24.9340 H   0  0  0  0  0  0  0  0  0  0  0  0
   -5.9290   14.3140   24.1100 H   0  0  0  0  0  0  0  0  0  0  0  0
   -2.1820   10.5260   23.7850 O   0  0  0  0  0  0  0  0  0  0  0  0
   -1.4390   10.2060   24.3230 H   0  0  0  0  0  0  0  0  0  0  0  0
  1 19  1  0  0  0  0
  1  6  1  0  0  0  0
  2  1  1  0  0  0  0
  3  2  1  0  0  0  0
  3  4  1  0  0  0  0
  3  9  1  0  0  0  0
  4 34  1  0  0  0  0
  4  5  1  0  0  0  0
  5 12  1  0  0  0  0
  5  6  1  0  0  0  0
  6 13  1  0  0  0  0
  6 14  1  0  0  0  0
  7  2  1  0  0  0  0
  8  2  1  0  0  0  0
 10  3  1  0  0  0  0
 11  5  1  0  0  0  0
 15 24  1  0  0  0  0
 16 15  2  0  0  0  0
 16 17  1  0  0  0  0
 17 18  2  0  0  0  0
 18 23  1  0  0  0  0
 18 19  1  0  0  0  0
 19 20  2  0  0  0  0
 20 21  1  0  0  0  0
 20 27  1  0  0  0  0
 21 28  1  0  0  0  0
 22 29  1  0  0  0  0
 22 21  2  0  0  0  0
 23 22  1  0  0  0  0
 24 23  2  0  0  0  0
 25 16  1  0  0  0  0
 26 17  1  0  0  0  0
 30 33  1  0  0  0  0
 30 15  1  0  0  0  0
 31 30  1  0  0  0  0
 32 30  1  0  0  0  0
 34 37  1  0  0  0  0
 35 34  1  0  0  0  0
 36 34  1  0  0  0  0
 37 38  1  0  0  0  0
 37 39  1  0  0  0  0
 37 40  1  0  0  0  0
 40 41  1  0  0  0  0
 41 50  1  0  0  0  0
 41 42  2  0  0  0  0
 42 60  1  0  0  0  0
 43 42  1  0  0  0  0
 43 44  1  0  0  0  0
 44 52  1  0  0  0  0
 45 44  2  0  0  0  0
 45 56  1  0  0  0  0
 46 45  1  0  0  0  0
 47 48  1  0  0  0  0
 47 46  2  0  0  0  0
 48 43  2  0  0  0  0
 49 40  2  0  0  0  0
 49 48  1  0  0  0  0
 51 49  1  0  0  0  0
 52 55  1  0  0  0  0
 53 52  1  0  0  0  0
 54 52  1  0  0  0  0
 56 59  1  0  0  0  0
 56 58  1  0  0  0  0
 57 56  1  0  0  0  0
 60 61  1  0  0  0  0
M  END
>  <MODEL>
22

>  <REMARK>
 VINA RESULT:    -7.193      2.735     10.677
 INTER + INTRA:          -8.500
 INTER:                  -9.281
 INTRA:                   0.781
 UNBOUND:                 1.216
  Name = 
  8 active torsions:
  status: ('A' for Active; 'I' for Inactive)
    1  A    between atoms: C_1  and  C_2
    2  A    between atoms: C_6  and  N_7
    3  A    between atoms: N_10  and  C_11
    4  A    between atoms: C_11  and  C_12
    5  A    between atoms: C_12  and  C_13
    6  A    between atoms: C_15  and  O_16
    7  A    between atoms: C_18  and  C_19
    8  A    between atoms: C_20  and  C_21
                            x       y       z     vdW  Elec       q    Type
                         _______ _______ _______ _____ _____    ______ ____

>  <TORSDO>
F 8

$$$$
=
 OpenBabel07192307433D

 61 65  0  0  0  0  0  0  0  0999 V2000
    1.7620    7.8320   18.5550 N   0  0  0  0  0  0  0  0  0  0  0  0
    1.9400    8.1520   19.9910 C   0  0  0  0  0  0  0  0  0  0  0  0
    0.8790    9.1800   20.4420 C   0  0  0  0  0  0  0  0  0  0  0  0
    0.9920   10.4940   19.7560 N   0  0  0  0  0  0  0  0  0  0  0  0
    1.5780   10.3370   18.4030 C   0  0  0  0  0  0  0  0  0  0  0  0
    1.3250    8.9740   17.7190 C   0  0  0  0  0  0  0  0  0  0  0  0
    2.9420    8.5540   20.1910 H   0  0  0  0  0  0  0  0  0  0  0  0
    1.8250    7.2370   20.5860 H   0  0  0  0  0  0  0  0  0  0  0  0
   -0.1110    8.7370   20.2660 H   0  0  0  0  0  0  0  0  0  0  0  0
    0.9800    9.3370   21.5210 H   0  0  0  0  0  0  0  0  0  0  0  0
    2.6610   10.4700   18.5150 H   0  0  0  0  0  0  0  0  0  0  0  0
    1.2590   11.1450   17.7340 H   0  0  0  0  0  0  0  0  0  0  0  0
    0.2470    8.8600   17.5470 H   0  0  0  0  0  0  0  0  0  0  0  0
    1.7920    8.9630   16.7270 H   0  0  0  0  0  0  0  0  0  0  0  0
    2.9690    2.8990   18.4340 C   0  0  0  0  0  0  0  0  0  0  0  0
    1.8450    3.5550   18.9090 C   0  0  0  0  0  0  0  0  0  0  0  0
    1.7890    4.9400   18.7930 C   0  0  0  0  0  0  0  0  0  0  0  0
    2.8480    5.6560   18.2060 C   0  0  0  0  0  0  0  0  0  0  0  0
    2.8450    7.0730   18.0560 C   0  0  0  0  0  0  0  0  0  0  0  0
    3.9460    7.6900   17.4450 C   0  0  0  0  0  0  0  0  0  0  0  0
    5.0210    6.9330   16.9870 C   0  0  0  0  0  0  0  0  0  0  0  0
    5.0060    5.5480   17.1430 C   0  0  0  0  0  0  0  0  0  0  0  0
    3.9430    4.8920   17.7430 C   0  0  0  0  0  0  0  0  0  0  0  0
    4.0040    3.5520   17.8560 N   0  0  0  0  0  0  0  0  0  0  0  0
    1.0230    3.0090   19.3580 H   0  0  0  0  0  0  0  0  0  0  0  0
    0.9110    5.4680   19.1550 H   0  0  0  0  0  0  0  0  0  0  0  0
    3.9860    8.7700   17.3330 H   0  0  0  0  0  0  0  0  0  0  0  0
    5.8710    7.4170   16.5160 H   0  0  0  0  0  0  0  0  0  0  0  0
    5.8480    4.9610   16.7850 H   0  0  0  0  0  0  0  0  0  0  0  0
    3.0650    1.4070   18.5240 C   0  0  0  0  0  0  0  0  0  0  0  0
    2.3700    0.9420   17.8190 H   0  0  0  0  0  0  0  0  0  0  0  0
    2.8290    1.0690   19.5370 H   0  0  0  0  0  0  0  0  0  0  0  0
    4.0770    1.0660   18.2800 H   0  0  0  0  0  0  0  0  0  0  0  0
   -0.3060   11.1960   19.7050 C   0  0  0  0  0  0  0  0  0  0  0  0
   -0.9370   10.7430   18.9290 H   0  0  0  0  0  0  0  0  0  0  0  0
   -0.8380   11.0590   20.6560 H   0  0  0  0  0  0  0  0  0  0  0  0
   -0.2040   12.7040   19.3980 C   0  0  0  0  0  0  0  0  0  0  0  0
   -0.8430   13.2970   20.0640 H   0  0  0  0  0  0  0  0  0  0  0  0
   -0.6060   12.8750   18.3910 H   0  0  0  0  0  0  0  0  0  0  0  0
    1.2110   13.2330   19.4510 C   0  0  0  0  0  0  0  0  0  0  0  0
    1.8560   13.6790   18.3040 C   0  0  0  0  0  0  0  0  0  0  0  0
    3.1570   14.1860   18.3860 C   0  0  0  0  0  0  0  0  0  0  0  0
    3.8720   14.2610   19.6150 C   0  0  0  0  0  0  0  0  0  0  0  0
    5.2020   14.7590   19.8050 C   0  0  0  0  0  0  0  0  0  0  0  0
    5.7300   14.7640   21.1000 C   0  0  0  0  0  0  0  0  0  0  0  0
    5.0220   14.3080   22.1520 N   0  0  0  0  0  0  0  0  0  0  0  0
    3.7590   13.8290   21.9740 N   0  0  0  0  0  0  0  0  0  0  0  0
    3.1950   13.8030   20.7630 C   0  0  0  0  0  0  0  0  0  0  0  0
    1.9000   13.3060   20.6660 C   0  0  0  0  0  0  0  0  0  0  0  0
    1.3360   13.6390   17.3520 H   0  0  0  0  0  0  0  0  0  0  0  0
    1.4160   12.9680   21.5820 H   0  0  0  0  0  0  0  0  0  0  0  0
    6.0160   15.2670   18.6440 C   0  0  0  0  0  0  0  0  0  0  0  0
    7.0600   14.9540   18.7450 H   0  0  0  0  0  0  0  0  0  0  0  0
    5.6740   14.8880   17.6790 H   0  0  0  0  0  0  0  0  0  0  0  0
    5.9500   16.3580   18.5850 H   0  0  0  0  0  0  0  0  0  0  0  0
    7.1020   15.2670   21.4300 C   0  0  0  0  0  0  0  0  0  0  0  0
    7.4230   14.9110   22.4160 H   0  0  0  0  0  0  0  0  0  0  0  0
    7.1140   16.3610   21.4550 H   0  0  0  0  0  0  0  0  0  0  0  0
    7.8300   14.9060   20.6970 H   0  0  0  0  0  0  0  0  0  0  0  0
    3.7390   14.6260   17.2240 O   0  0  0  0  0  0  0  0  0  0  0  0
    3.1080   15.1880   16.7460 H   0  0  0  0  0  0  0  0  0  0  0  0
  1  2  1  0  0  0  0
  2  7  1  0  0  0  0
  2  3  1  0  0  0  0
  2  8  1  0  0  0  0
  3 10  1  0  0  0  0
  4  3  1  0  0  0  0
  5 11  1  0  0  0  0
  5  4  1  0  0  0  0
  6  5  1  0  0  0  0
  6  1  1  0  0  0  0
  9  3  1  0  0  0  0
 12  5  1  0  0  0  0
 13  6  1  0  0  0  0
 14  6  1  0  0  0  0
 15 30  1  0  0  0  0
 15 16  1  0  0  0  0
 16 25  1  0  0  0  0
 17 16  2  0  0  0  0
 17 26  1  0  0  0  0
 18 17  1  0  0  0  0
 19 18  1  0  0  0  0
 19  1  1  0  0  0  0
 20 19  2  0  0  0  0
 21 22  2  0  0  0  0
 21 20  1  0  0  0  0
 22 23  1  0  0  0  0
 23 24  1  0  0  0  0
 23 18  2  0  0  0  0
 24 15  2  0  0  0  0
 27 20  1  0  0  0  0
 28 21  1  0  0  0  0
 29 22  1  0  0  0  0
 30 32  1  0  0  0  0
 31 30  1  0  0  0  0
 33 30  1  0  0  0  0
 34  4  1  0  0  0  0
 34 36  1  0  0  0  0
 35 34  1  0  0  0  0
 37 40  1  0  0  0  0
 37 34  1  0  0  0  0
 37 38  1  0  0  0  0
 39 37  1  0  0  0  0
 40 49  1  0  0  0  0
 41 42  1  0  0  0  0
 41 40  2  0  0  0  0
 42 43  2  0  0  0  0
 43 44  1  0  0  0  0
 43 48  1  0  0  0  0
 44 45  2  0  0  0  0
 45 56  1  0  0  0  0
 45 46  1  0  0  0  0
 47 46  2  0  0  0  0
 48 47  1  0  0  0  0
 49 48  2  0  0  0  0
 49 51  1  0  0  0  0
 50 41  1  0  0  0  0
 52 53  1  0  0  0  0
 52 44  1  0  0  0  0
 54 52  1  0  0  0  0
 55 52  1  0  0  0  0
 56 58  1  0  0  0  0
 56 57  1  0  0  0  0
 59 56  1  0  0  0  0
 60 42  1  0  0  0  0
 61 60  1  0  0  0  0
M  END
>  <MODEL>
23

>  <REMARK>
 VINA RESULT:    -7.175      3.976      9.804
 INTER + INTRA:          -8.475
 INTER:                  -8.610
 INTRA:                   0.135
 UNBOUND:                 1.216
  Name = 
  8 active torsions:
  status: ('A' for Active; 'I' for Inactive)
    1  A    between atoms: C_1  and  C_2
    2  A    between atoms: C_6  and  N_7
    3  A    between atoms: N_10  and  C_11
    4  A    between atoms: C_11  and  C_12
    5  A    between atoms: C_12  and  C_13
    6  A    between atoms: C_15  and  O_16
    7  A    between atoms: C_18  and  C_19
    8  A    between atoms: C_20  and  C_21
                            x       y       z     vdW  Elec       q    Type
                         _______ _______ _______ _____ _____    ______ ____

>  <TORSDO>
F 8

$$$$
=
 OpenBabel07192307433D

 61 65  0  0  0  0  0  0  0  0999 V2000
   -0.5960   11.2540   21.2660 N   0  0  0  0  0  0  0  0  0  0  0  0
    0.3380   11.0400   20.1350 C   0  0  0  0  0  0  0  0  0  0  0  0
    0.4670    9.5310   19.8330 C   0  0  0  0  0  0  0  0  0  0  0  0
    1.0560    8.7460   20.9500 N   0  0  0  0  0  0  0  0  0  0  0  0
    0.7620    9.3820   22.2570 C   0  0  0  0  0  0  0  0  0  0  0  0
   -0.5400   10.2120   22.3180 C   0  0  0  0  0  0  0  0  0  0  0  0
    1.3320   11.4530   20.3530 H   0  0  0  0  0  0  0  0  0  0  0  0
   -0.0460   11.5500   19.2430 H   0  0  0  0  0  0  0  0  0  0  0  0
   -0.5330    9.1540   19.5820 H   0  0  0  0  0  0  0  0  0  0  0  0
    1.0960    9.4050   18.9450 H   0  0  0  0  0  0  0  0  0  0  0  0
    1.6060   10.0480   22.4760 H   0  0  0  0  0  0  0  0  0  0  0  0
    0.7620    8.6440   23.0680 H   0  0  0  0  0  0  0  0  0  0  0  0
   -1.3940    9.5420   22.1600 H   0  0  0  0  0  0  0  0  0  0  0  0
   -0.6680   10.6320   23.3230 H   0  0  0  0  0  0  0  0  0  0  0  0
   -3.9630   14.4570   23.3180 C   0  0  0  0  0  0  0  0  0  0  0  0
   -4.0730   13.1260   22.9490 C   0  0  0  0  0  0  0  0  0  0  0  0
   -2.9560   12.4940   22.4140 C   0  0  0  0  0  0  0  0  0  0  0  0
   -1.7440   13.1900   22.2530 C   0  0  0  0  0  0  0  0  0  0  0  0
   -0.5660   12.5940   21.7150 C   0  0  0  0  0  0  0  0  0  0  0  0
    0.5960   13.3730   21.6070 C   0  0  0  0  0  0  0  0  0  0  0  0
    0.6020   14.7000   22.0240 C   0  0  0  0  0  0  0  0  0  0  0  0
   -0.5600   15.2660   22.5470 C   0  0  0  0  0  0  0  0  0  0  0  0
   -1.7340   14.5400   22.6700 C   0  0  0  0  0  0  0  0  0  0  0  0
   -2.8130   15.1580   23.1860 N   0  0  0  0  0  0  0  0  0  0  0  0
   -5.0030   12.5830   23.0750 H   0  0  0  0  0  0  0  0  0  0  0  0
   -3.0240   11.4480   22.1260 H   0  0  0  0  0  0  0  0  0  0  0  0
    1.5050   12.9560   21.1840 H   0  0  0  0  0  0  0  0  0  0  0  0
    1.5050   15.2980   21.9370 H   0  0  0  0  0  0  0  0  0  0  0  0
   -0.5500   16.3040   22.8700 H   0  0  0  0  0  0  0  0  0  0  0  0
   -5.1370   15.1730   23.9130 C   0  0  0  0  0  0  0  0  0  0  0  0
   -5.4190   14.7090   24.8620 H   0  0  0  0  0  0  0  0  0  0  0  0
   -5.9900   15.1430   23.2290 H   0  0  0  0  0  0  0  0  0  0  0  0
   -4.8950   16.2240   24.1060 H   0  0  0  0  0  0  0  0  0  0  0  0
    0.6120    7.3380   20.9200 C   0  0  0  0  0  0  0  0  0  0  0  0
   -0.0820    7.1560   21.7510 H   0  0  0  0  0  0  0  0  0  0  0  0
    0.0500    7.1470   19.9970 H   0  0  0  0  0  0  0  0  0  0  0  0
    1.7540    6.3080   21.0360 C   0  0  0  0  0  0  0  0  0  0  0  0
    1.3840    5.3290   21.3660 H   0  0  0  0  0  0  0  0  0  0  0  0
    2.4320    6.6390   21.8340 H   0  0  0  0  0  0  0  0  0  0  0  0
    2.5480    6.1450   19.7610 C   0  0  0  0  0  0  0  0  0  0  0  0
    2.7650    7.2190   18.9050 C   0  0  0  0  0  0  0  0  0  0  0  0
    3.5230    7.0460   17.7430 C   0  0  0  0  0  0  0  0  0  0  0  0
    4.0910    5.7910   17.3820 C   0  0  0  0  0  0  0  0  0  0  0  0
    4.8780    5.5090   16.2180 C   0  0  0  0  0  0  0  0  0  0  0  0
    5.3610    4.2090   16.0430 C   0  0  0  0  0  0  0  0  0  0  0  0
    5.0960    3.2320   16.9320 N   0  0  0  0  0  0  0  0  0  0  0  0
    4.3430    3.4950   18.0370 N   0  0  0  0  0  0  0  0  0  0  0  0
    3.8570    4.7190   18.2650 C   0  0  0  0  0  0  0  0  0  0  0  0
    3.1050    4.9080   19.4200 C   0  0  0  0  0  0  0  0  0  0  0  0
    2.3490    8.1900   19.1560 H   0  0  0  0  0  0  0  0  0  0  0  0
    2.9540    4.0510   20.0740 H   0  0  0  0  0  0  0  0  0  0  0  0
    5.1830    6.5820   15.2060 C   0  0  0  0  0  0  0  0  0  0  0  0
    6.2640    6.7320   15.1240 H   0  0  0  0  0  0  0  0  0  0  0  0
    4.8290    6.3410   14.2010 H   0  0  0  0  0  0  0  0  0  0  0  0
    4.6900    7.5180   15.4870 H   0  0  0  0  0  0  0  0  0  0  0  0
    6.2030    3.7910   14.8750 C   0  0  0  0  0  0  0  0  0  0  0  0
    7.1720    4.3020   14.8890 H   0  0  0  0  0  0  0  0  0  0  0  0
    5.7080    4.0490   13.9340 H   0  0  0  0  0  0  0  0  0  0  0  0
    6.3970    2.7150   14.9080 H   0  0  0  0  0  0  0  0  0  0  0  0
    3.7180    8.1450   16.9450 O   0  0  0  0  0  0  0  0  0  0  0  0
    4.0260    8.8850   17.4930 H   0  0  0  0  0  0  0  0  0  0  0  0
  1 19  1  0  0  0  0
  1  6  1  0  0  0  0
  2  7  1  0  0  0  0
  2  1  1  0  0  0  0
  3  2  1  0  0  0  0
  3  4  1  0  0  0  0
  4  5  1  0  0  0  0
  5  6  1  0  0  0  0
  5 11  1  0  0  0  0
  5 12  1  0  0  0  0
  6 14  1  0  0  0  0
  8  2  1  0  0  0  0
  9  3  1  0  0  0  0
 10  3  1  0  0  0  0
 13  6  1  0  0  0  0
 15 30  1  0  0  0  0
 16 25  1  0  0  0  0
 16 15  2  0  0  0  0
 17 16  1  0  0  0  0
 18 17  2  0  0  0  0
 18 23  1  0  0  0  0
 19 18  1  0  0  0  0
 20 19  2  0  0  0  0
 20 21  1  0  0  0  0
 21 22  2  0  0  0  0
 22 23  1  0  0  0  0
 22 29  1  0  0  0  0
 23 24  2  0  0  0  0
 24 15  1  0  0  0  0
 26 17  1  0  0  0  0
 27 20  1  0  0  0  0
 28 21  1  0  0  0  0
 30 33  1  0  0  0  0
 30 31  1  0  0  0  0
 32 30  1  0  0  0  0
 34  4  1  0  0  0  0
 34 37  1  0  0  0  0
 34 35  1  0  0  0  0
 36 34  1  0  0  0  0
 37 38  1  0  0  0  0
 37 39  1  0  0  0  0
 40 37  1  0  0  0  0
 41 50  1  0  0  0  0
 41 40  2  0  0  0  0
 42 41  1  0  0  0  0
 43 42  2  0  0  0  0
 43 48  1  0  0  0  0
 44 43  1  0  0  0  0
 45 44  2  0  0  0  0
 45 46  1  0  0  0  0
 46 47  2  0  0  0  0
 47 48  1  0  0  0  0
 48 49  2  0  0  0  0
 49 40  1  0  0  0  0
 49 51  1  0  0  0  0
 52 55  1  0  0  0  0
 52 44  1  0  0  0  0
 53 52  1  0  0  0  0
 54 52  1  0  0  0  0
 56 57  1  0  0  0  0
 56 59  1  0  0  0  0
 56 45  1  0  0  0  0
 58 56  1  0  0  0  0
 60 61  1  0  0  0  0
 60 42  1  0  0  0  0
M  END
>  <MODEL>
24

>  <REMARK>
 VINA RESULT:    -7.096      1.877      3.095
 INTER + INTRA:          -8.368
 INTER:                  -8.397
 INTRA:                   0.029
 UNBOUND:                 1.216
  Name = 
  8 active torsions:
  status: ('A' for Active; 'I' for Inactive)
    1  A    between atoms: C_1  and  C_2
    2  A    between atoms: C_6  and  N_7
    3  A    between atoms: N_10  and  C_11
    4  A    between atoms: C_11  and  C_12
    5  A    between atoms: C_12  and  C_13
    6  A    between atoms: C_15  and  O_16
    7  A    between atoms: C_18  and  C_19
    8  A    between atoms: C_20  and  C_21
                            x       y       z     vdW  Elec       q    Type
                         _______ _______ _______ _____ _____    ______ ____

>  <TORSDO>
F 8

$$$$
=
 OpenBabel07192307433D

 61 65  0  0  0  0  0  0  0  0999 V2000
    3.5210    5.8000   19.0980 N   0  0  0  0  0  0  0  0  0  0  0  0
    2.7700    6.8080   18.3130 C   0  0  0  0  0  0  0  0  0  0  0  0
    2.2630    7.9330   19.2410 C   0  0  0  0  0  0  0  0  0  0  0  0
    1.2940    7.4700   20.2670 N   0  0  0  0  0  0  0  0  0  0  0  0
    1.5340    6.0500   20.6200 C   0  0  0  0  0  0  0  0  0  0  0  0
    2.9900    5.5590   20.4600 C   0  0  0  0  0  0  0  0  0  0  0  0
    1.9160    6.3550   17.7920 H   0  0  0  0  0  0  0  0  0  0  0  0
    3.4300    7.2430   17.5520 H   0  0  0  0  0  0  0  0  0  0  0  0
    3.1400    8.3920   19.7180 H   0  0  0  0  0  0  0  0  0  0  0  0
    1.7840    8.7040   18.6270 H   0  0  0  0  0  0  0  0  0  0  0  0
    0.8940    5.4520   19.9590 H   0  0  0  0  0  0  0  0  0  0  0  0
    1.1830    5.8260   21.6350 H   0  0  0  0  0  0  0  0  0  0  0  0
    3.6280    6.1090   21.1620 H   0  0  0  0  0  0  0  0  0  0  0  0
    3.0610    4.5030   20.7510 H   0  0  0  0  0  0  0  0  0  0  0  0
    6.3340    4.8040   14.9870 C   0  0  0  0  0  0  0  0  0  0  0  0
    6.1530    5.9710   15.7120 C   0  0  0  0  0  0  0  0  0  0  0  0
    5.3150    5.9370   16.8210 C   0  0  0  0  0  0  0  0  0  0  0  0
    4.6690    4.7460   17.1980 C   0  0  0  0  0  0  0  0  0  0  0  0
    3.8040    4.6490   18.3270 C   0  0  0  0  0  0  0  0  0  0  0  0
    3.2180    3.4110   18.6240 C   0  0  0  0  0  0  0  0  0  0  0  0
    3.4800    2.2930   17.8370 C   0  0  0  0  0  0  0  0  0  0  0  0
    4.3290    2.4070   16.7370 C   0  0  0  0  0  0  0  0  0  0  0  0
    4.9300    3.6100   16.3990 C   0  0  0  0  0  0  0  0  0  0  0  0
    5.7360    3.6380   15.3220 N   0  0  0  0  0  0  0  0  0  0  0  0
    6.6520    6.8910   15.4290 H   0  0  0  0  0  0  0  0  0  0  0  0
    5.1690    6.8430   17.4040 H   0  0  0  0  0  0  0  0  0  0  0  0
    2.5380    3.3070   19.4650 H   0  0  0  0  0  0  0  0  0  0  0  0
    3.0230    1.3370   18.0730 H   0  0  0  0  0  0  0  0  0  0  0  0
    4.5300    1.5320   16.1240 H   0  0  0  0  0  0  0  0  0  0  0  0
    7.2400    4.7920   13.7930 C   0  0  0  0  0  0  0  0  0  0  0  0
    7.1390    3.8460   13.2540 H   0  0  0  0  0  0  0  0  0  0  0  0
    8.2820    4.9200   14.1030 H   0  0  0  0  0  0  0  0  0  0  0  0
    6.9890    5.6060   13.1060 H   0  0  0  0  0  0  0  0  0  0  0  0
    1.3100    8.3350   21.4630 C   0  0  0  0  0  0  0  0  0  0  0  0
    0.4010    8.1600   22.0540 H   0  0  0  0  0  0  0  0  0  0  0  0
    2.1570    8.0620   22.1070 H   0  0  0  0  0  0  0  0  0  0  0  0
    1.3790    9.8450   21.1570 C   0  0  0  0  0  0  0  0  0  0  0  0
    2.1830   10.0790   20.4480 H   0  0  0  0  0  0  0  0  0  0  0  0
    1.6550   10.3680   22.0830 H   0  0  0  0  0  0  0  0  0  0  0  0
    0.0750   10.4150   20.6490 C   0  0  0  0  0  0  0  0  0  0  0  0
   -0.6540   11.3290   21.4020 C   0  0  0  0  0  0  0  0  0  0  0  0
   -1.8460   11.8580   20.8970 C   0  0  0  0  0  0  0  0  0  0  0  0
   -2.3650   11.4920   19.6230 C   0  0  0  0  0  0  0  0  0  0  0  0
   -3.5720   11.9720   19.0180 C   0  0  0  0  0  0  0  0  0  0  0  0
   -3.9090   11.5010   17.7450 C   0  0  0  0  0  0  0  0  0  0  0  0
   -3.1340   10.6130   17.0940 N   0  0  0  0  0  0  0  0  0  0  0  0
   -1.9880   10.1500   17.6680 N   0  0  0  0  0  0  0  0  0  0  0  0
   -1.6080   10.5650   18.8800 C   0  0  0  0  0  0  0  0  0  0  0  0
   -0.4210   10.0510   19.3930 C   0  0  0  0  0  0  0  0  0  0  0  0
   -0.2820   11.6310   22.3760 H   0  0  0  0  0  0  0  0  0  0  0  0
    0.1320    9.3410   18.7800 H   0  0  0  0  0  0  0  0  0  0  0  0
   -4.4590   12.9600   19.7290 C   0  0  0  0  0  0  0  0  0  0  0  0
   -4.0050   13.2670   20.6760 H   0  0  0  0  0  0  0  0  0  0  0  0
   -4.6280   13.8760   19.1580 H   0  0  0  0  0  0  0  0  0  0  0  0
   -5.4470   12.5230   19.9040 H   0  0  0  0  0  0  0  0  0  0  0  0
   -5.1370   11.9340   17.0030 C   0  0  0  0  0  0  0  0  0  0  0  0
   -4.8800   12.3110   16.0070 H   0  0  0  0  0  0  0  0  0  0  0  0
   -5.6450   12.7420   17.5390 H   0  0  0  0  0  0  0  0  0  0  0  0
   -5.8220   11.0920   16.8700 H   0  0  0  0  0  0  0  0  0  0  0  0
   -2.5150   12.7670   21.6780 O   0  0  0  0  0  0  0  0  0  0  0  0
   -1.8710   13.2760   22.1950 H   0  0  0  0  0  0  0  0  0  0  0  0
  1  6  1  0  0  0  0
  2  1  1  0  0  0  0
  2  3  1  0  0  0  0
  3  9  1  0  0  0  0
  3  4  1  0  0  0  0
  4  5  1  0  0  0  0
  4 34  1  0  0  0  0
  5 12  1  0  0  0  0
  6  5  1  0  0  0  0
  6 14  1  0  0  0  0
  6 13  1  0  0  0  0
  7  2  1  0  0  0  0
  8  2  1  0  0  0  0
 10  3  1  0  0  0  0
 11  5  1  0  0  0  0
 15 24  2  0  0  0  0
 15 16  1  0  0  0  0
 16 17  2  0  0  0  0
 17 18  1  0  0  0  0
 17 26  1  0  0  0  0
 18 19  1  0  0  0  0
 19 20  2  0  0  0  0
 19  1  1  0  0  0  0
 20 27  1  0  0  0  0
 21 28  1  0  0  0  0
 21 20  1  0  0  0  0
 22 21  2  0  0  0  0
 23 22  1  0  0  0  0
 23 18  2  0  0  0  0
 24 23  1  0  0  0  0
 25 16  1  0  0  0  0
 29 22  1  0  0  0  0
 30 32  1  0  0  0  0
 30 15  1  0  0  0  0
 31 30  1  0  0  0  0
 33 30  1  0  0  0  0
 34 35  1  0  0  0  0
 34 36  1  0  0  0  0
 37 34  1  0  0  0  0
 37 39  1  0  0  0  0
 38 37  1  0  0  0  0
 40 37  1  0  0  0  0
 40 41  1  0  0  0  0
 41 50  1  0  0  0  0
 42 41  2  0  0  0  0
 42 60  1  0  0  0  0
 43 42  1  0  0  0  0
 44 43  1  0  0  0  0
 44 52  1  0  0  0  0
 45 44  2  0  0  0  0
 46 47  2  0  0  0  0
 46 45  1  0  0  0  0
 47 48  1  0  0  0  0
 48 49  1  0  0  0  0
 48 43  2  0  0  0  0
 49 40  2  0  0  0  0
 51 49  1  0  0  0  0
 52 55  1  0  0  0  0
 52 53  1  0  0  0  0
 54 52  1  0  0  0  0
 56 58  1  0  0  0  0
 56 45  1  0  0  0  0
 57 56  1  0  0  0  0
 59 56  1  0  0  0  0
 60 61  1  0  0  0  0
M  END
>  <MODEL>
25

>  <REMARK>
 VINA RESULT:    -7.089      3.236     10.729
 INTER + INTRA:          -8.360
 INTER:                  -8.501
 INTRA:                   0.142
 UNBOUND:                 1.216
  Name = 
  8 active torsions:
  status: ('A' for Active; 'I' for Inactive)
    1  A    between atoms: C_1  and  C_2
    2  A    between atoms: C_6  and  N_7
    3  A    between atoms: N_10  and  C_11
    4  A    between atoms: C_11  and  C_12
    5  A    between atoms: C_12  and  C_13
    6  A    between atoms: C_15  and  O_16
    7  A    between atoms: C_18  and  C_19
    8  A    between atoms: C_20  and  C_21
                            x       y       z     vdW  Elec       q    Type
                         _______ _______ _______ _____ _____    ______ ____

>  <TORSDO>
F 8

$$$$
=
 OpenBabel07192307433D

 61 65  0  0  0  0  0  0  0  0999 V2000
    2.8210    6.6320   19.2970 N   0  0  0  0  0  0  0  0  0  0  0  0
    2.2090    7.6680   18.4310 C   0  0  0  0  0  0  0  0  0  0  0  0
    1.9100    8.9390   19.2550 C   0  0  0  0  0  0  0  0  0  0  0  0
    0.9130    8.7290   20.3370 N   0  0  0  0  0  0  0  0  0  0  0  0
    0.9440    7.3280   20.8210 C   0  0  0  0  0  0  0  0  0  0  0  0
    2.3020    6.6030   20.6840 C   0  0  0  0  0  0  0  0  0  0  0  0
    1.2790    7.3070   17.9700 H   0  0  0  0  0  0  0  0  0  0  0  0
    2.9040    7.9230   17.6210 H   0  0  0  0  0  0  0  0  0  0  0  0
    2.8610    9.2990   19.6710 H   0  0  0  0  0  0  0  0  0  0  0  0
    1.5360    9.7150   18.5780 H   0  0  0  0  0  0  0  0  0  0  0  0
    0.1990    6.7780   20.2310 H   0  0  0  0  0  0  0  0  0  0  0  0
    0.5950    7.2560   21.8580 H   0  0  0  0  0  0  0  0  0  0  0  0
    3.0380    7.1110   21.3200 H   0  0  0  0  0  0  0  0  0  0  0  0
    2.2200    5.5810   21.0740 H   0  0  0  0  0  0  0  0  0  0  0  0
    5.6700    4.6940   15.5640 C   0  0  0  0  0  0  0  0  0  0  0  0
    5.6970    5.9310   16.1890 C   0  0  0  0  0  0  0  0  0  0  0  0
    4.7840    6.1760   17.2080 C   0  0  0  0  0  0  0  0  0  0  0  0
    3.8560    5.1930   17.5950 C   0  0  0  0  0  0  0  0  0  0  0  0
    2.9000    5.3850   18.6350 C   0  0  0  0  0  0  0  0  0  0  0  0
    2.0260    4.3350   18.9530 C   0  0  0  0  0  0  0  0  0  0  0  0
    2.0940    3.1240   18.2710 C   0  0  0  0  0  0  0  0  0  0  0  0
    3.0360    2.9540   17.2570 C   0  0  0  0  0  0  0  0  0  0  0  0
    3.9190    3.9620   16.9030 C   0  0  0  0  0  0  0  0  0  0  0  0
    4.7980    3.7200   15.9140 N   0  0  0  0  0  0  0  0  0  0  0  0
    6.4130    6.6910   15.8990 H   0  0  0  0  0  0  0  0  0  0  0  0
    4.7970    7.1390   17.7130 H   0  0  0  0  0  0  0  0  0  0  0  0
    1.2730    4.4560   19.7250 H   0  0  0  0  0  0  0  0  0  0  0  0
    1.4140    2.3150   18.5210 H   0  0  0  0  0  0  0  0  0  0  0  0
    3.0840    2.0060   16.7260 H   0  0  0  0  0  0  0  0  0  0  0  0
    6.6460    4.3800   14.4720 C   0  0  0  0  0  0  0  0  0  0  0  0
    6.1160    4.0270   13.5840 H   0  0  0  0  0  0  0  0  0  0  0  0
    7.3520    3.6120   14.7990 H   0  0  0  0  0  0  0  0  0  0  0  0
    7.2200    5.2710   14.1950 H   0  0  0  0  0  0  0  0  0  0  0  0
    1.0990    9.6880   21.4440 C   0  0  0  0  0  0  0  0  0  0  0  0
    2.0750    9.5150   21.9170 H   0  0  0  0  0  0  0  0  0  0  0  0
    1.1230   10.7110   21.0470 H   0  0  0  0  0  0  0  0  0  0  0  0
    0.0270    9.6020   22.5490 C   0  0  0  0  0  0  0  0  0  0  0  0
    0.4740    9.6280   23.5510 H   0  0  0  0  0  0  0  0  0  0  0  0
   -0.4580    8.6190   22.4790 H   0  0  0  0  0  0  0  0  0  0  0  0
   -1.0330   10.6740   22.4410 C   0  0  0  0  0  0  0  0  0  0  0  0
   -1.6830   11.1610   23.5700 C   0  0  0  0  0  0  0  0  0  0  0  0
   -2.6440   12.1700   23.4430 C   0  0  0  0  0  0  0  0  0  0  0  0
   -3.0020   12.7300   22.1840 C   0  0  0  0  0  0  0  0  0  0  0  0
   -3.9690   13.7600   21.9470 C   0  0  0  0  0  0  0  0  0  0  0  0
   -4.1730   14.1900   20.6320 C   0  0  0  0  0  0  0  0  0  0  0  0
   -3.4900   13.6530   19.6020 N   0  0  0  0  0  0  0  0  0  0  0  0
   -2.5730   12.6700   19.8220 N   0  0  0  0  0  0  0  0  0  0  0  0
   -2.3290   12.2190   21.0560 C   0  0  0  0  0  0  0  0  0  0  0  0
   -1.3720   11.2200   21.1990 C   0  0  0  0  0  0  0  0  0  0  0  0
   -1.4290   10.7580   24.5450 H   0  0  0  0  0  0  0  0  0  0  0  0
   -0.8760   10.8600   20.2990 H   0  0  0  0  0  0  0  0  0  0  0  0
   -4.7500   14.3710   23.0810 C   0  0  0  0  0  0  0  0  0  0  0  0
   -4.1810   15.1860   23.5390 H   0  0  0  0  0  0  0  0  0  0  0  0
   -5.7040   14.7990   22.7670 H   0  0  0  0  0  0  0  0  0  0  0  0
   -4.9890   13.6080   23.8290 H   0  0  0  0  0  0  0  0  0  0  0  0
   -5.1470   15.2640   20.2560 C   0  0  0  0  0  0  0  0  0  0  0  0
   -5.2070   15.3740   19.1670 H   0  0  0  0  0  0  0  0  0  0  0  0
   -4.8320   16.2280   20.6670 H   0  0  0  0  0  0  0  0  0  0  0  0
   -6.1490   15.0170   20.6180 H   0  0  0  0  0  0  0  0  0  0  0  0
   -3.2410   12.6220   24.5920 O   0  0  0  0  0  0  0  0  0  0  0  0
   -2.5610   12.9900   25.1800 H   0  0  0  0  0  0  0  0  0  0  0  0
  1  6  1  0  0  0  0
  2  3  1  0  0  0  0
  2  1  1  0  0  0  0
  3  9  1  0  0  0  0
  3  4  1  0  0  0  0
  4  5  1  0  0  0  0
  4 34  1  0  0  0  0
  5 12  1  0  0  0  0
  6  5  1  0  0  0  0
  6 14  1  0  0  0  0
  6 13  1  0  0  0  0
  7  2  1  0  0  0  0
  8  2  1  0  0  0  0
 10  3  1  0  0  0  0
 11  5  1  0  0  0  0
 15 24  2  0  0  0  0
 15 16  1  0  0  0  0
 16 17  2  0  0  0  0
 17 18  1  0  0  0  0
 17 26  1  0  0  0  0
 18 19  1  0  0  0  0
 19 20  2  0  0  0  0
 19  1  1  0  0  0  0
 20 27  1  0  0  0  0
 21 28  1  0  0  0  0
 21 20  1  0  0  0  0
 22 21  2  0  0  0  0
 23 22  1  0  0  0  0
 23 18  2  0  0  0  0
 24 23  1  0  0  0  0
 25 16  1  0  0  0  0
 29 22  1  0  0  0  0
 30 32  1  0  0  0  0
 30 15  1  0  0  0  0
 31 30  1  0  0  0  0
 33 30  1  0  0  0  0
 34 35  1  0  0  0  0
 34 37  1  0  0  0  0
 36 34  1  0  0  0  0
 37 38  1  0  0  0  0
 39 37  1  0  0  0  0
 40 37  1  0  0  0  0
 40 41  1  0  0  0  0
 41 50  1  0  0  0  0
 42 41  2  0  0  0  0
 42 60  1  0  0  0  0
 43 42  1  0  0  0  0
 44 43  1  0  0  0  0
 44 52  1  0  0  0  0
 45 44  2  0  0  0  0
 46 47  2  0  0  0  0
 46 45  1  0  0  0  0
 47 48  1  0  0  0  0
 48 49  1  0  0  0  0
 48 43  2  0  0  0  0
 49 40  2  0  0  0  0
 51 49  1  0  0  0  0
 52 53  1  0  0  0  0
 52 55  1  0  0  0  0
 54 52  1  0  0  0  0
 56 59  1  0  0  0  0
 56 45  1  0  0  0  0
 56 58  1  0  0  0  0
 57 56  1  0  0  0  0
 60 61  1  0  0  0  0
M  END
>  <MODEL>
26

>  <REMARK>
 VINA RESULT:    -6.971      3.053     11.098
 INTER + INTRA:          -8.200
 INTER:                  -7.927
 INTRA:                  -0.273
 UNBOUND:                 1.216
  Name = 
  8 active torsions:
  status: ('A' for Active; 'I' for Inactive)
    1  A    between atoms: C_1  and  C_2
    2  A    between atoms: C_6  and  N_7
    3  A    between atoms: N_10  and  C_11
    4  A    between atoms: C_11  and  C_12
    5  A    between atoms: C_12  and  C_13
    6  A    between atoms: C_15  and  O_16
    7  A    between atoms: C_18  and  C_19
    8  A    between atoms: C_20  and  C_21
                            x       y       z     vdW  Elec       q    Type
                         _______ _______ _______ _____ _____    ______ ____

>  <TORSDO>
F 8

$$$$
=
 OpenBabel07192307433D

 61 65  0  0  0  0  0  0  0  0999 V2000
   -1.3120   10.9370   18.8010 N   0  0  0  0  0  0  0  0  0  0  0  0
   -0.3020   11.9620   19.1550 C   0  0  0  0  0  0  0  0  0  0  0  0
    1.0150   11.2820   19.5910 C   0  0  0  0  0  0  0  0  0  0  0  0
    0.8820   10.4560   20.8200 N   0  0  0  0  0  0  0  0  0  0  0  0
   -0.4960    9.9250   20.9550 C   0  0  0  0  0  0  0  0  0  0  0  0
   -1.2610    9.7100   19.6310 C   0  0  0  0  0  0  0  0  0  0  0  0
   -0.6580   12.6140   19.9650 H   0  0  0  0  0  0  0  0  0  0  0  0
   -0.1030   12.5960   18.2820 H   0  0  0  0  0  0  0  0  0  0  0  0
    1.3670   10.6680   18.7510 H   0  0  0  0  0  0  0  0  0  0  0  0
    1.7680   12.0580   19.7680 H   0  0  0  0  0  0  0  0  0  0  0  0
   -1.0520   10.6510   21.5610 H   0  0  0  0  0  0  0  0  0  0  0  0
   -0.5090    8.9960   21.5390 H   0  0  0  0  0  0  0  0  0  0  0  0
   -0.7450    8.9400   19.0450 H   0  0  0  0  0  0  0  0  0  0  0  0
   -2.2620    9.3100   19.8390 H   0  0  0  0  0  0  0  0  0  0  0  0
   -4.4400   13.7780   21.6200 C   0  0  0  0  0  0  0  0  0  0  0  0
   -3.1670   13.2930   21.8720 C   0  0  0  0  0  0  0  0  0  0  0  0
   -2.5400   12.5380   20.8870 C   0  0  0  0  0  0  0  0  0  0  0  0
   -3.1840   12.2750   19.6640 C   0  0  0  0  0  0  0  0  0  0  0  0
   -2.5900   11.5120   18.6160 C   0  0  0  0  0  0  0  0  0  0  0  0
   -3.3120   11.3170   17.4300 C   0  0  0  0  0  0  0  0  0  0  0  0
   -4.5820   11.8630   17.2740 C   0  0  0  0  0  0  0  0  0  0  0  0
   -5.1470   12.6060   18.3100 C   0  0  0  0  0  0  0  0  0  0  0  0
   -4.4760   12.8240   19.5030 C   0  0  0  0  0  0  0  0  0  0  0  0
   -5.0890   13.5520   20.4540 N   0  0  0  0  0  0  0  0  0  0  0  0
   -2.6630   13.4970   22.8100 H   0  0  0  0  0  0  0  0  0  0  0  0
   -1.5380   12.1570   21.0670 H   0  0  0  0  0  0  0  0  0  0  0  0
   -2.8970   10.7250   16.6200 H   0  0  0  0  0  0  0  0  0  0  0  0
   -5.1370   11.7080   16.3530 H   0  0  0  0  0  0  0  0  0  0  0  0
   -6.1400   13.0290   18.1840 H   0  0  0  0  0  0  0  0  0  0  0  0
   -5.1470   14.6080   22.6480 C   0  0  0  0  0  0  0  0  0  0  0  0
   -4.4570   14.8800   23.4510 H   0  0  0  0  0  0  0  0  0  0  0  0
   -5.9920   14.0570   23.0700 H   0  0  0  0  0  0  0  0  0  0  0  0
   -5.5340   15.5310   22.2030 H   0  0  0  0  0  0  0  0  0  0  0  0
    1.8860    9.3750   20.8620 C   0  0  0  0  0  0  0  0  0  0  0  0
    2.3770    9.2940   19.8830 H   0  0  0  0  0  0  0  0  0  0  0  0
    2.6730    9.6290   21.5840 H   0  0  0  0  0  0  0  0  0  0  0  0
    1.3140    7.9860   21.2090 C   0  0  0  0  0  0  0  0  0  0  0  0
    0.2210    7.9640   21.1210 H   0  0  0  0  0  0  0  0  0  0  0  0
    1.5180    7.7890   22.2700 H   0  0  0  0  0  0  0  0  0  0  0  0
    1.9100    6.8680   20.3850 C   0  0  0  0  0  0  0  0  0  0  0  0
    2.6330    7.1320   19.2280 C   0  0  0  0  0  0  0  0  0  0  0  0
    3.1940    6.0800   18.4970 C   0  0  0  0  0  0  0  0  0  0  0  0
    3.0510    4.7180   18.8870 C   0  0  0  0  0  0  0  0  0  0  0  0
    3.5820    3.5720   18.2110 C   0  0  0  0  0  0  0  0  0  0  0  0
    3.3440    2.3080   18.7610 C   0  0  0  0  0  0  0  0  0  0  0  0
    2.6290    2.1540   19.8920 N   0  0  0  0  0  0  0  0  0  0  0  0
    2.1180    3.2410   20.5350 N   0  0  0  0  0  0  0  0  0  0  0  0
    2.3150    4.4770   20.0640 C   0  0  0  0  0  0  0  0  0  0  0  0
    1.7670    5.5340   20.7830 C   0  0  0  0  0  0  0  0  0  0  0  0
    2.7640    8.1610   18.9060 H   0  0  0  0  0  0  0  0  0  0  0  0
    1.2100    5.2980   21.6880 H   0  0  0  0  0  0  0  0  0  0  0  0
    4.3790    3.7170   16.9410 C   0  0  0  0  0  0  0  0  0  0  0  0
    5.4460    3.7980   17.1690 H   0  0  0  0  0  0  0  0  0  0  0  0
    4.2720    2.8650   16.2660 H   0  0  0  0  0  0  0  0  0  0  0  0
    4.0410    4.5950   16.3820 H   0  0  0  0  0  0  0  0  0  0  0  0
    3.8530    1.0350   18.1550 C   0  0  0  0  0  0  0  0  0  0  0  0
    4.9490    1.0140   18.1550 H   0  0  0  0  0  0  0  0  0  0  0  0
    3.5220    0.9450   17.1160 H   0  0  0  0  0  0  0  0  0  0  0  0
    3.5070    0.1720   18.7300 H   0  0  0  0  0  0  0  0  0  0  0  0
    3.9090    6.4020   17.3710 O   0  0  0  0  0  0  0  0  0  0  0  0
    3.3810    7.0020   16.8200 H   0  0  0  0  0  0  0  0  0  0  0  0
  1  2  1  0  0  0  0
  1  6  1  0  0  0  0
  2  3  1  0  0  0  0
  2  7  1  0  0  0  0
  3 10  1  0  0  0  0
  3  4  1  0  0  0  0
  4 34  1  0  0  0  0
  4  5  1  0  0  0  0
  5 12  1  0  0  0  0
  5 11  1  0  0  0  0
  6 14  1  0  0  0  0
  6  5  1  0  0  0  0
  8  2  1  0  0  0  0
  9  3  1  0  0  0  0
 13  6  1  0  0  0  0
 15 16  1  0  0  0  0
 15 30  1  0  0  0  0
 16 25  1  0  0  0  0
 17 26  1  0  0  0  0
 17 16  2  0  0  0  0
 18 17  1  0  0  0  0
 19  1  1  0  0  0  0
 19 18  2  0  0  0  0
 20 19  1  0  0  0  0
 21 20  2  0  0  0  0
 21 22  1  0  0  0  0
 22 23  2  0  0  0  0
 23 18  1  0  0  0  0
 23 24  1  0  0  0  0
 24 15  2  0  0  0  0
 27 20  1  0  0  0  0
 28 21  1  0  0  0  0
 29 22  1  0  0  0  0
 30 32  1  0  0  0  0
 30 31  1  0  0  0  0
 33 30  1  0  0  0  0
 34 37  1  0  0  0  0
 34 36  1  0  0  0  0
 35 34  1  0  0  0  0
 37 39  1  0  0  0  0
 38 37  1  0  0  0  0
 40 49  1  0  0  0  0
 40 37  1  0  0  0  0
 41 40  2  0  0  0  0
 42 43  2  0  0  0  0
 42 41  1  0  0  0  0
 43 48  1  0  0  0  0
 44 45  2  0  0  0  0
 44 43  1  0  0  0  0
 45 46  1  0  0  0  0
 46 47  2  0  0  0  0
 48 47  1  0  0  0  0
 48 49  2  0  0  0  0
 49 51  1  0  0  0  0
 50 41  1  0  0  0  0
 52 53  1  0  0  0  0
 52 44  1  0  0  0  0
 54 52  1  0  0  0  0
 55 52  1  0  0  0  0
 56 57  1  0  0  0  0
 56 59  1  0  0  0  0
 56 45  1  0  0  0  0
 58 56  1  0  0  0  0
 60 42  1  0  0  0  0
 61 60  1  0  0  0  0
M  END
>  <MODEL>
27

>  <REMARK>
 VINA RESULT:    -6.906      1.754      2.472
 INTER + INTRA:          -8.112
 INTER:                  -8.498
 INTRA:                   0.386
 UNBOUND:                 1.216
  Name = 
  8 active torsions:
  status: ('A' for Active; 'I' for Inactive)
    1  A    between atoms: C_1  and  C_2
    2  A    between atoms: C_6  and  N_7
    3  A    between atoms: N_10  and  C_11
    4  A    between atoms: C_11  and  C_12
    5  A    between atoms: C_12  and  C_13
    6  A    between atoms: C_15  and  O_16
    7  A    between atoms: C_18  and  C_19
    8  A    between atoms: C_20  and  C_21
                            x       y       z     vdW  Elec       q    Type
                         _______ _______ _______ _____ _____    ______ ____

>  <TORSDO>
F 8

$$$$
=
 OpenBabel07192307433D

 61 65  0  0  0  0  0  0  0  0999 V2000
    0.7760    9.9540   19.0960 N   0  0  0  0  0  0  0  0  0  0  0  0
    1.8130    9.2110   18.3420 C   0  0  0  0  0  0  0  0  0  0  0  0
    1.6980    7.6980   18.6320 C   0  0  0  0  0  0  0  0  0  0  0  0
    1.9490    7.3410   20.0520 N   0  0  0  0  0  0  0  0  0  0  0  0
    1.5860    8.4620   20.9530 C   0  0  0  0  0  0  0  0  0  0  0  0
    0.4720    9.4000   20.4360 C   0  0  0  0  0  0  0  0  0  0  0  0
    2.8230    9.5540   18.6050 H   0  0  0  0  0  0  0  0  0  0  0  0
    1.6740    9.3800   17.2670 H   0  0  0  0  0  0  0  0  0  0  0  0
    0.6940    7.3760   18.3250 H   0  0  0  0  0  0  0  0  0  0  0  0
    2.4190    7.1660   18.0020 H   0  0  0  0  0  0  0  0  0  0  0  0
    2.4980    9.0550   21.0950 H   0  0  0  0  0  0  0  0  0  0  0  0
    1.3230    8.0990   21.9540 H   0  0  0  0  0  0  0  0  0  0  0  0
   -0.4600    8.8270   20.3490 H   0  0  0  0  0  0  0  0  0  0  0  0
    0.2750   10.1860   21.1750 H   0  0  0  0  0  0  0  0  0  0  0  0
   -1.8560   14.0850   20.4440 C   0  0  0  0  0  0  0  0  0  0  0  0
   -2.1320   12.7350   20.5900 C   0  0  0  0  0  0  0  0  0  0  0  0
   -1.1990   11.8150   20.1260 C   0  0  0  0  0  0  0  0  0  0  0  0
   -0.0020   12.2460   19.5240 C   0  0  0  0  0  0  0  0  0  0  0  0
    0.9930   11.3500   19.0340 C   0  0  0  0  0  0  0  0  0  0  0  0
    2.1570   11.8820   18.4620 C   0  0  0  0  0  0  0  0  0  0  0  0
    2.3430   13.2590   18.3780 C   0  0  0  0  0  0  0  0  0  0  0  0
    1.3580   14.1190   18.8630 C   0  0  0  0  0  0  0  0  0  0  0  0
    0.1880   13.6430   19.4340 C   0  0  0  0  0  0  0  0  0  0  0  0
   -0.7130   14.5380   19.8780 N   0  0  0  0  0  0  0  0  0  0  0  0
   -3.0500   12.3970   21.0570 H   0  0  0  0  0  0  0  0  0  0  0  0
   -1.3980   10.7530   20.2400 H   0  0  0  0  0  0  0  0  0  0  0  0
    2.9260   11.2280   18.0610 H   0  0  0  0  0  0  0  0  0  0  0  0
    3.2460   13.6640   17.9330 H   0  0  0  0  0  0  0  0  0  0  0  0
    1.5070   15.1940   18.7940 H   0  0  0  0  0  0  0  0  0  0  0  0
   -2.8260   15.1110   20.9440 C   0  0  0  0  0  0  0  0  0  0  0  0
   -3.5500   15.3560   20.1620 H   0  0  0  0  0  0  0  0  0  0  0  0
   -2.2990   16.0210   21.2440 H   0  0  0  0  0  0  0  0  0  0  0  0
   -3.3760   14.7360   21.8130 H   0  0  0  0  0  0  0  0  0  0  0  0
    1.2550    6.0940   20.4320 C   0  0  0  0  0  0  0  0  0  0  0  0
    0.7230    6.2460   21.3800 H   0  0  0  0  0  0  0  0  0  0  0  0
    0.4910    5.8520   19.6810 H   0  0  0  0  0  0  0  0  0  0  0  0
    2.1850    4.8770   20.6130 C   0  0  0  0  0  0  0  0  0  0  0  0
    1.6240    3.9350   20.6100 H   0  0  0  0  0  0  0  0  0  0  0  0
    2.6350    4.9380   21.6130 H   0  0  0  0  0  0  0  0  0  0  0  0
    3.2930    4.8090   19.5870 C   0  0  0  0  0  0  0  0  0  0  0  0
    4.6170    5.0440   19.9390 C   0  0  0  0  0  0  0  0  0  0  0  0
    5.6250    4.9520   18.9740 C   0  0  0  0  0  0  0  0  0  0  0  0
    5.3520    4.6290   17.6150 C   0  0  0  0  0  0  0  0  0  0  0  0
    6.3080    4.5120   16.5530 C   0  0  0  0  0  0  0  0  0  0  0  0
    5.8450    4.1710   15.2780 C   0  0  0  0  0  0  0  0  0  0  0  0
    4.5360    3.9630   15.0360 N   0  0  0  0  0  0  0  0  0  0  0  0
    3.6240    4.0780   16.0420 N   0  0  0  0  0  0  0  0  0  0  0  0
    4.0030    4.3960   17.2830 C   0  0  0  0  0  0  0  0  0  0  0  0
    3.0130    4.4860   18.2550 C   0  0  0  0  0  0  0  0  0  0  0  0
    4.8570    5.2880   20.9700 H   0  0  0  0  0  0  0  0  0  0  0  0
    1.9850    4.2930   17.9520 H   0  0  0  0  0  0  0  0  0  0  0  0
    7.7750    4.7470   16.7970 C   0  0  0  0  0  0  0  0  0  0  0  0
    8.3460    3.8360   16.5920 H   0  0  0  0  0  0  0  0  0  0  0  0
    8.2000    5.5250   16.1590 H   0  0  0  0  0  0  0  0  0  0  0  0
    7.9390    5.0740   17.8290 H   0  0  0  0  0  0  0  0  0  0  0  0
    6.7430    4.0080   14.0900 C   0  0  0  0  0  0  0  0  0  0  0  0
    6.4990    3.0930   13.5380 H   0  0  0  0  0  0  0  0  0  0  0  0
    7.7880    3.9340   14.4060 H   0  0  0  0  0  0  0  0  0  0  0  0
    6.6250    4.8500   13.4010 H   0  0  0  0  0  0  0  0  0  0  0  0
    6.9150    5.1790   19.3830 O   0  0  0  0  0  0  0  0  0  0  0  0
    7.3330    5.8110   18.7760 H   0  0  0  0  0  0  0  0  0  0  0  0
  1  6  1  0  0  0  0
  2  7  1  0  0  0  0
  2  3  1  0  0  0  0
  2  1  1  0  0  0  0
  3  4  1  0  0  0  0
  4 34  1  0  0  0  0
  4  5  1  0  0  0  0
  5 11  1  0  0  0  0
  5 12  1  0  0  0  0
  6  5  1  0  0  0  0
  6 14  1  0  0  0  0
  8  2  1  0  0  0  0
  9  3  1  0  0  0  0
 10  3  1  0  0  0  0
 13  6  1  0  0  0  0
 15 16  1  0  0  0  0
 15 30  1  0  0  0  0
 16 25  1  0  0  0  0
 17 26  1  0  0  0  0
 17 16  2  0  0  0  0
 18 17  1  0  0  0  0
 19  1  1  0  0  0  0
 19 18  2  0  0  0  0
 20 19  1  0  0  0  0
 21 20  2  0  0  0  0
 21 22  1  0  0  0  0
 22 23  2  0  0  0  0
 23 18  1  0  0  0  0
 23 24  1  0  0  0  0
 24 15  2  0  0  0  0
 27 20  1  0  0  0  0
 28 21  1  0  0  0  0
 29 22  1  0  0  0  0
 30 32  1  0  0  0  0
 30 33  1  0  0  0  0
 31 30  1  0  0  0  0
 34 37  1  0  0  0  0
 34 35  1  0  0  0  0
 36 34  1  0  0  0  0
 37 39  1  0  0  0  0
 38 37  1  0  0  0  0
 40 41  1  0  0  0  0
 40 37  1  0  0  0  0
 41 50  1  0  0  0  0
 42 60  1  0  0  0  0
 42 41  2  0  0  0  0
 43 42  1  0  0  0  0
 44 52  1  0  0  0  0
 44 43  2  0  0  0  0
 45 44  1  0  0  0  0
 46 45  2  0  0  0  0
 46 47  1  0  0  0  0
 47 48  2  0  0  0  0
 48 43  1  0  0  0  0
 48 49  1  0  0  0  0
 49 40  2  0  0  0  0
 51 49  1  0  0  0  0
 52 55  1  0  0  0  0
 53 52  1  0  0  0  0
 54 52  1  0  0  0  0
 56 58  1  0  0  0  0
 56 45  1  0  0  0  0
 57 56  1  0  0  0  0
 59 56  1  0  0  0  0
 61 60  1  0  0  0  0
M  END
>  <MODEL>
28

>  <REMARK>
 VINA RESULT:    -6.825      2.411      4.260
 INTER + INTRA:          -8.003
 INTER:                  -8.044
 INTRA:                   0.041
 UNBOUND:                 1.216
  Name = 
  8 active torsions:
  status: ('A' for Active; 'I' for Inactive)
    1  A    between atoms: C_1  and  C_2
    2  A    between atoms: C_6  and  N_7
    3  A    between atoms: N_10  and  C_11
    4  A    between atoms: C_11  and  C_12
    5  A    between atoms: C_12  and  C_13
    6  A    between atoms: C_15  and  O_16
    7  A    between atoms: C_18  and  C_19
    8  A    between atoms: C_20  and  C_21
                            x       y       z     vdW  Elec       q    Type
                         _______ _______ _______ _____ _____    ______ ____

>  <TORSDO>
F 8

$$$$
=
 OpenBabel07192307433D

 61 65  0  0  0  0  0  0  0  0999 V2000
    0.1880    9.9570   20.3050 N   0  0  0  0  0  0  0  0  0  0  0  0
    1.4700    9.6140   19.6460 C   0  0  0  0  0  0  0  0  0  0  0  0
    1.6220    8.0800   19.5460 C   0  0  0  0  0  0  0  0  0  0  0  0
    1.6920    7.4000   20.8650 N   0  0  0  0  0  0  0  0  0  0  0  0
    0.9550    8.1670   21.8980 C   0  0  0  0  0  0  0  0  0  0  0  0
   -0.2220    9.0240   21.3800 C   0  0  0  0  0  0  0  0  0  0  0  0
    2.3270   10.0280   20.1960 H   0  0  0  0  0  0  0  0  0  0  0  0
    1.4870   10.0410   18.6360 H   0  0  0  0  0  0  0  0  0  0  0  0
    0.7750    7.6990   18.9600 H   0  0  0  0  0  0  0  0  0  0  0  0
    2.5350    7.8550   18.9840 H   0  0  0  0  0  0  0  0  0  0  0  0
    1.6860    8.8360   22.3700 H   0  0  0  0  0  0  0  0  0  0  0  0
    0.6030    7.5140   22.7050 H   0  0  0  0  0  0  0  0  0  0  0  0
   -0.9860    8.3580   20.9610 H   0  0  0  0  0  0  0  0  0  0  0  0
   -0.7020    9.5430   22.2180 H   0  0  0  0  0  0  0  0  0  0  0  0
    2.3100   14.1910   18.4660 C   0  0  0  0  0  0  0  0  0  0  0  0
    2.4020   12.8690   18.0600 C   0  0  0  0  0  0  0  0  0  0  0  0
    1.6830   11.9090   18.7640 C   0  0  0  0  0  0  0  0  0  0  0  0
    0.8800   12.2730   19.8600 C   0  0  0  0  0  0  0  0  0  0  0  0
    0.1180   11.3350   20.6160 C   0  0  0  0  0  0  0  0  0  0  0  0
   -0.6610   11.8020   21.6840 C   0  0  0  0  0  0  0  0  0  0  0  0
   -0.6950   13.1570   21.9990 C   0  0  0  0  0  0  0  0  0  0  0  0
    0.0580   14.0600   21.2480 C   0  0  0  0  0  0  0  0  0  0  0  0
    0.8460   13.6470   20.1860 C   0  0  0  0  0  0  0  0  0  0  0  0
    1.5430   14.5800   19.5100 N   0  0  0  0  0  0  0  0  0  0  0  0
    3.0150   12.5830   17.2120 H   0  0  0  0  0  0  0  0  0  0  0  0
    1.7400   10.8690   18.4520 H   0  0  0  0  0  0  0  0  0  0  0  0
   -1.2380   11.1120   22.2930 H   0  0  0  0  0  0  0  0  0  0  0  0
   -1.2990   13.5130   22.8280 H   0  0  0  0  0  0  0  0  0  0  0  0
    0.0290   15.1170   21.4990 H   0  0  0  0  0  0  0  0  0  0  0  0
    3.0560   15.2600   17.7270 C   0  0  0  0  0  0  0  0  0  0  0  0
    3.7510   15.7670   18.4010 H   0  0  0  0  0  0  0  0  0  0  0  0
    2.3590   15.9930   17.3100 H   0  0  0  0  0  0  0  0  0  0  0  0
    3.6320   14.8310   16.9000 H   0  0  0  0  0  0  0  0  0  0  0  0
    1.2160    6.0050   20.7850 C   0  0  0  0  0  0  0  0  0  0  0  0
    0.5180    5.8080   21.6090 H   0  0  0  0  0  0  0  0  0  0  0  0
    0.6490    5.8600   19.8560 H   0  0  0  0  0  0  0  0  0  0  0  0
    2.3330    4.9440   20.8630 C   0  0  0  0  0  0  0  0  0  0  0  0
    1.9470    3.9720   21.1930 H   0  0  0  0  0  0  0  0  0  0  0  0
    3.0400    5.2510   21.6450 H   0  0  0  0  0  0  0  0  0  0  0  0
    3.0900    4.7730   19.5660 C   0  0  0  0  0  0  0  0  0  0  0  0
    2.5560    4.0410   18.5110 C   0  0  0  0  0  0  0  0  0  0  0  0
    3.2680    3.9180   17.3130 C   0  0  0  0  0  0  0  0  0  0  0  0
    4.5450    4.5150   17.1200 C   0  0  0  0  0  0  0  0  0  0  0  0
    5.3540    4.4490   15.9390 C   0  0  0  0  0  0  0  0  0  0  0  0
    6.5820    5.1170   15.9360 C   0  0  0  0  0  0  0  0  0  0  0  0
    7.0130    5.8030   17.0120 N   0  0  0  0  0  0  0  0  0  0  0  0
    6.2500    5.8650   18.1390 N   0  0  0  0  0  0  0  0  0  0  0  0
    5.0640    5.2520   18.2030 C   0  0  0  0  0  0  0  0  0  0  0  0
    4.3420    5.3690   19.3860 C   0  0  0  0  0  0  0  0  0  0  0  0
    1.5810    3.5770   18.6260 H   0  0  0  0  0  0  0  0  0  0  0  0
    4.7820    5.9530   20.1940 H   0  0  0  0  0  0  0  0  0  0  0  0
    4.8970    3.6820   14.7250 C   0  0  0  0  0  0  0  0  0  0  0  0
    4.6670    2.6470   14.9940 H   0  0  0  0  0  0  0  0  0  0  0  0
    3.9900    4.0910   14.2730 H   0  0  0  0  0  0  0  0  0  0  0  0
    5.6660    3.7120   13.9470 H   0  0  0  0  0  0  0  0  0  0  0  0
    7.5110    5.1310   14.7610 C   0  0  0  0  0  0  0  0  0  0  0  0
    7.3890    6.0510   14.1770 H   0  0  0  0  0  0  0  0  0  0  0  0
    7.3020    4.2880   14.0950 H   0  0  0  0  0  0  0  0  0  0  0  0
    8.5520    5.0900   15.0940 H   0  0  0  0  0  0  0  0  0  0  0  0
    2.6850    3.1960   16.3030 O   0  0  0  0  0  0  0  0  0  0  0  0
    1.8620    2.7980   16.6300 H   0  0  0  0  0  0  0  0  0  0  0  0
  1 19  1  0  0  0  0
  1  6  1  0  0  0  0
  2  7  1  0  0  0  0
  2  1  1  0  0  0  0
  3  2  1  0  0  0  0
  3  4  1  0  0  0  0
  4  5  1  0  0  0  0
  5 11  1  0  0  0  0
  5 12  1  0  0  0  0
  6  5  1  0  0  0  0
  6 14  1  0  0  0  0
  8  2  1  0  0  0  0
  9  3  1  0  0  0  0
 10  3  1  0  0  0  0
 13  6  1  0  0  0  0
 15 24  1  0  0  0  0
 16 15  2  0  0  0  0
 16 17  1  0  0  0  0
 17 18  2  0  0  0  0
 18 23  1  0  0  0  0
 18 19  1  0  0  0  0
 19 20  2  0  0  0  0
 20 21  1  0  0  0  0
 20 27  1  0  0  0  0
 21 28  1  0  0  0  0
 22 29  1  0  0  0  0
 22 21  2  0  0  0  0
 23 22  1  0  0  0  0
 24 23  2  0  0  0  0
 25 16  1  0  0  0  0
 26 17  1  0  0  0  0
 30 31  1  0  0  0  0
 30 15  1  0  0  0  0
 32 30  1  0  0  0  0
 33 30  1  0  0  0  0
 34 37  1  0  0  0  0
 34  4  1  0  0  0  0
 34 35  1  0  0  0  0
 36 34  1  0  0  0  0
 37 38  1  0  0  0  0
 37 39  1  0  0  0  0
 40 37  1  0  0  0  0
 41 50  1  0  0  0  0
 41 40  2  0  0  0  0
 42 41  1  0  0  0  0
 43 42  2  0  0  0  0
 43 48  1  0  0  0  0
 44 43  1  0  0  0  0
 45 44  2  0  0  0  0
 45 46  1  0  0  0  0
 46 47  2  0  0  0  0
 47 48  1  0  0  0  0
 48 49  2  0  0  0  0
 49 40  1  0  0  0  0
 49 51  1  0  0  0  0
 52 53  1  0  0  0  0
 52 44  1  0  0  0  0
 54 52  1  0  0  0  0
 55 52  1  0  0  0  0
 56 59  1  0  0  0  0
 56 45  1  0  0  0  0
 57 56  1  0  0  0  0
 58 56  1  0  0  0  0
 60 61  1  0  0  0  0
 60 42  1  0  0  0  0
M  END
>  <MODEL>
29

>  <REMARK>
 VINA RESULT:    -6.816      2.895      4.704
 INTER + INTRA:          -7.990
 INTER:                  -8.709
 INTRA:                   0.719
 UNBOUND:                 1.216
  Name = 
  8 active torsions:
  status: ('A' for Active; 'I' for Inactive)
    1  A    between atoms: C_1  and  C_2
    2  A    between atoms: C_6  and  N_7
    3  A    between atoms: N_10  and  C_11
    4  A    between atoms: C_11  and  C_12
    5  A    between atoms: C_12  and  C_13
    6  A    between atoms: C_15  and  O_16
    7  A    between atoms: C_18  and  C_19
    8  A    between atoms: C_20  and  C_21
                            x       y       z     vdW  Elec       q    Type
                         _______ _______ _______ _____ _____    ______ ____

>  <TORSDO>
F 8

$$$$
=
 OpenBabel07192307433D

 61 65  0  0  0  0  0  0  0  0999 V2000
    3.5540   15.1000   20.3010 N   0  0  0  0  0  0  0  0  0  0  0  0
    2.4020   15.2670   19.3840 C   0  0  0  0  0  0  0  0  0  0  0  0
    1.0780   15.1950   20.1770 C   0  0  0  0  0  0  0  0  0  0  0  0
    0.8430   13.8800   20.8290 N   0  0  0  0  0  0  0  0  0  0  0  0
    2.1260   13.2120   21.1540 C   0  0  0  0  0  0  0  0  0  0  0  0
    3.3210   14.1550   21.4180 C   0  0  0  0  0  0  0  0  0  0  0  0
    2.3970   14.4960   18.6010 H   0  0  0  0  0  0  0  0  0  0  0  0
    2.4680   16.2430   18.8890 H   0  0  0  0  0  0  0  0  0  0  0  0
    1.0940   15.9980   20.9260 H   0  0  0  0  0  0  0  0  0  0  0  0
    0.2480   15.4020   19.4920 H   0  0  0  0  0  0  0  0  0  0  0  0
    2.3730   12.5760   20.2950 H   0  0  0  0  0  0  0  0  0  0  0  0
    2.0130   12.5210   21.9980 H   0  0  0  0  0  0  0  0  0  0  0  0
    3.1090   14.7530   22.3130 H   0  0  0  0  0  0  0  0  0  0  0  0
    4.2160   13.5660   21.6550 H   0  0  0  0  0  0  0  0  0  0  0  0
    8.4920   15.1330   21.4940 C   0  0  0  0  0  0  0  0  0  0  0  0
    7.3590   15.2580   22.2810 C   0  0  0  0  0  0  0  0  0  0  0  0
    6.1150   15.1970   21.6640 C   0  0  0  0  0  0  0  0  0  0  0  0
    6.0100   15.0110   20.2740 C   0  0  0  0  0  0  0  0  0  0  0  0
    4.7630   14.9350   19.5870 C   0  0  0  0  0  0  0  0  0  0  0  0
    4.7680   14.7350   18.1990 C   0  0  0  0  0  0  0  0  0  0  0  0
    5.9660   14.6060   17.5040 C   0  0  0  0  0  0  0  0  0  0  0  0
    7.1760   14.6830   18.1930 C   0  0  0  0  0  0  0  0  0  0  0  0
    7.2250   14.8830   19.5630 C   0  0  0  0  0  0  0  0  0  0  0  0
    8.4320   14.9450   20.1550 N   0  0  0  0  0  0  0  0  0  0  0  0
    7.4330   15.3970   23.3540 H   0  0  0  0  0  0  0  0  0  0  0  0
    5.2160   15.2860   22.2700 H   0  0  0  0  0  0  0  0  0  0  0  0
    3.8360   14.6930   17.6420 H   0  0  0  0  0  0  0  0  0  0  0  0
    5.9630   14.4520   16.4290 H   0  0  0  0  0  0  0  0  0  0  0  0
    8.1100   14.5830   17.6450 H   0  0  0  0  0  0  0  0  0  0  0  0
    9.8530   15.1780   22.1190 C   0  0  0  0  0  0  0  0  0  0  0  0
   10.3040   16.1620   21.9690 H   0  0  0  0  0  0  0  0  0  0  0  0
   10.5010   14.4140   21.6790 H   0  0  0  0  0  0  0  0  0  0  0  0
    9.7920   14.9910   23.1960 H   0  0  0  0  0  0  0  0  0  0  0  0
   -0.0180   14.0080   22.0210 C   0  0  0  0  0  0  0  0  0  0  0  0
    0.6090   14.0830   22.9190 H   0  0  0  0  0  0  0  0  0  0  0  0
   -0.5920   14.9420   21.9650 H   0  0  0  0  0  0  0  0  0  0  0  0
   -0.9930   12.8320   22.2340 C   0  0  0  0  0  0  0  0  0  0  0  0
   -1.7390   13.0580   23.0050 H   0  0  0  0  0  0  0  0  0  0  0  0
   -0.4210   11.9830   22.6310 H   0  0  0  0  0  0  0  0  0  0  0  0
   -1.6920   12.3950   20.9670 C   0  0  0  0  0  0  0  0  0  0  0  0
   -2.9480   12.8850   20.6310 C   0  0  0  0  0  0  0  0  0  0  0  0
   -3.5620   12.4820   19.4410 C   0  0  0  0  0  0  0  0  0  0  0  0
   -2.9500   11.5660   18.5390 C   0  0  0  0  0  0  0  0  0  0  0  0
   -3.4920   11.0900   17.3000 C   0  0  0  0  0  0  0  0  0  0  0  0
   -2.7290   10.1980   16.5410 C   0  0  0  0  0  0  0  0  0  0  0  0
   -1.5160    9.7800   16.9530 N   0  0  0  0  0  0  0  0  0  0  0  0
   -0.9990   10.2270   18.1320 N   0  0  0  0  0  0  0  0  0  0  0  0
   -1.6770   11.0850   18.9010 C   0  0  0  0  0  0  0  0  0  0  0  0
   -1.0770   11.4990   20.0860 C   0  0  0  0  0  0  0  0  0  0  0  0
   -3.4390   13.5890   21.2960 H   0  0  0  0  0  0  0  0  0  0  0  0
   -0.0910   11.1030   20.3210 H   0  0  0  0  0  0  0  0  0  0  0  0
   -4.8490   11.5370   16.8220 C   0  0  0  0  0  0  0  0  0  0  0  0
   -5.6330   11.1270   17.4650 H   0  0  0  0  0  0  0  0  0  0  0  0
   -4.9750   12.6220   16.8360 H   0  0  0  0  0  0  0  0  0  0  0  0
   -5.0050   11.2250   15.7840 H   0  0  0  0  0  0  0  0  0  0  0  0
   -3.1800    9.6370   15.2270 C   0  0  0  0  0  0  0  0  0  0  0  0
   -2.8520    8.5970   15.1120 H   0  0  0  0  0  0  0  0  0  0  0  0
   -2.7520   10.2100   14.3980 H   0  0  0  0  0  0  0  0  0  0  0  0
   -4.2720    9.6480   15.1600 H   0  0  0  0  0  0  0  0  0  0  0  0
   -4.7960   13.0100   19.1540 O   0  0  0  0  0  0  0  0  0  0  0  0
   -4.7950   13.3420   18.2420 H   0  0  0  0  0  0  0  0  0  0  0  0
  1  6  1  0  0  0  0
  2  3  1  0  0  0  0
  2  1  1  0  0  0  0
  3  4  1  0  0  0  0
  3  9  1  0  0  0  0
  4  5  1  0  0  0  0
  4 34  1  0  0  0  0
  5  6  1  0  0  0  0
  5 12  1  0  0  0  0
  6 14  1  0  0  0  0
  6 13  1  0  0  0  0
  7  2  1  0  0  0  0
  8  2  1  0  0  0  0
 10  3  1  0  0  0  0
 11  5  1  0  0  0  0
 15 30  1  0  0  0  0
 15 16  1  0  0  0  0
 16 25  1  0  0  0  0
 17 26  1  0  0  0  0
 17 16  2  0  0  0  0
 18 17  1  0  0  0  0
 19 18  1  0  0  0  0
 19  1  1  0  0  0  0
 20 19  2  0  0  0  0
 21 22  2  0  0  0  0
 21 20  1  0  0  0  0
 22 23  1  0  0  0  0
 23 24  1  0  0  0  0
 23 18  2  0  0  0  0
 24 15  2  0  0  0  0
 27 20  1  0  0  0  0
 28 21  1  0  0  0  0
 29 22  1  0  0  0  0
 30 33  1  0  0  0  0
 31 30  1  0  0  0  0
 32 30  1  0  0  0  0
 34 37  1  0  0  0  0
 34 35  1  0  0  0  0
 36 34  1  0  0  0  0
 37 39  1  0  0  0  0
 37 38  1  0  0  0  0
 40 37  1  0  0  0  0
 41 40  1  0  0  0  0
 41 50  1  0  0  0  0
 42 41  2  0  0  0  0
 43 48  1  0  0  0  0
 43 42  1  0  0  0  0
 44 43  2  0  0  0  0
 45 46  2  0  0  0  0
 45 44  1  0  0  0  0
 46 47  1  0  0  0  0
 47 48  2  0  0  0  0
 48 49  1  0  0  0  0
 49 51  1  0  0  0  0
 49 40  2  0  0  0  0
 52 54  1  0  0  0  0
 52 44  1  0  0  0  0
 52 53  1  0  0  0  0
 55 52  1  0  0  0  0
 56 45  1  0  0  0  0
 57 56  1  0  0  0  0
 58 56  1  0  0  0  0
 59 56  1  0  0  0  0
 60 42  1  0  0  0  0
 61 60  1  0  0  0  0
M  END
>  <MODEL>
30

>  <REMARK>
 VINA RESULT:    -6.792      5.801      9.122
 INTER + INTRA:          -7.958
 INTER:                  -7.976
 INTRA:                   0.018
 UNBOUND:                 1.216
  Name = 
  8 active torsions:
  status: ('A' for Active; 'I' for Inactive)
    1  A    between atoms: C_1  and  C_2
    2  A    between atoms: C_6  and  N_7
    3  A    between atoms: N_10  and  C_11
    4  A    between atoms: C_11  and  C_12
    5  A    between atoms: C_12  and  C_13
    6  A    between atoms: C_15  and  O_16
    7  A    between atoms: C_18  and  C_19
    8  A    between atoms: C_20  and  C_21
                            x       y       z     vdW  Elec       q    Type
                         _______ _______ _______ _____ _____    ______ ____

>  <TORSDO>
F 8

$$$$
=
 OpenBabel07192307433D

 61 65  0  0  0  0  0  0  0  0999 V2000
    3.3460    5.3570   19.3840 N   0  0  0  0  0  0  0  0  0  0  0  0
    2.6160    6.3710   18.5870 C   0  0  0  0  0  0  0  0  0  0  0  0
    2.0010    7.4370   19.5200 C   0  0  0  0  0  0  0  0  0  0  0  0
    0.9790    6.8970   20.4530 N   0  0  0  0  0  0  0  0  0  0  0  0
    1.2460    5.4730   20.7660 C   0  0  0  0  0  0  0  0  0  0  0  0
    2.7280    5.0400   20.6930 C   0  0  0  0  0  0  0  0  0  0  0  0
    1.8180    5.9110   17.9880 H   0  0  0  0  0  0  0  0  0  0  0  0
    3.3110    6.8610   17.8940 H   0  0  0  0  0  0  0  0  0  0  0  0
    2.8230    7.9060   20.0780 H   0  0  0  0  0  0  0  0  0  0  0  0
    1.5390    8.2160   18.9030 H   0  0  0  0  0  0  0  0  0  0  0  0
    0.6780    4.8820   20.0370 H   0  0  0  0  0  0  0  0  0  0  0  0
    0.8330    5.1940   21.7430 H   0  0  0  0  0  0  0  0  0  0  0  0
    3.2930    5.5820   21.4610 H   0  0  0  0  0  0  0  0  0  0  0  0
    2.8180    3.9760   20.9460 H   0  0  0  0  0  0  0  0  0  0  0  0
    6.2220    4.6930   15.2490 C   0  0  0  0  0  0  0  0  0  0  0  0
    5.9400    5.8250   15.9970 C   0  0  0  0  0  0  0  0  0  0  0  0
    5.1130    5.6960   17.1070 C   0  0  0  0  0  0  0  0  0  0  0  0
    4.5760    4.4450   17.4620 C   0  0  0  0  0  0  0  0  0  0  0  0
    3.7270    4.2510   18.5900 C   0  0  0  0  0  0  0  0  0  0  0  0
    3.2530    2.9600   18.8660 C   0  0  0  0  0  0  0  0  0  0  0  0
    3.6110    1.8850   18.0570 C   0  0  0  0  0  0  0  0  0  0  0  0
    4.4430    2.0950   16.9570 C   0  0  0  0  0  0  0  0  0  0  0  0
    4.9330    3.3520   16.6410 C   0  0  0  0  0  0  0  0  0  0  0  0
    5.7300    3.4720   15.5640 N   0  0  0  0  0  0  0  0  0  0  0  0
    6.3550    6.7910   15.7310 H   0  0  0  0  0  0  0  0  0  0  0  0
    4.8890    6.5740   17.7070 H   0  0  0  0  0  0  0  0  0  0  0  0
    2.5890    2.7800   19.7050 H   0  0  0  0  0  0  0  0  0  0  0  0
    3.2410    0.8880   18.2740 H   0  0  0  0  0  0  0  0  0  0  0  0
    4.7180    1.2520   16.3280 H   0  0  0  0  0  0  0  0  0  0  0  0
    7.1210    4.7830   14.0550 C   0  0  0  0  0  0  0  0  0  0  0  0
    7.7780    3.9100   14.0120 H   0  0  0  0  0  0  0  0  0  0  0  0
    7.7300    5.6900   14.1030 H   0  0  0  0  0  0  0  0  0  0  0  0
    6.5360    4.8160   13.1290 H   0  0  0  0  0  0  0  0  0  0  0  0
    0.8770    7.7110   21.6810 C   0  0  0  0  0  0  0  0  0  0  0  0
    0.7800    7.0490   22.5510 H   0  0  0  0  0  0  0  0  0  0  0  0
    1.8040    8.2810   21.8250 H   0  0  0  0  0  0  0  0  0  0  0  0
   -0.3200    8.6840   21.7040 C   0  0  0  0  0  0  0  0  0  0  0  0
   -0.7960    8.7180   22.6910 H   0  0  0  0  0  0  0  0  0  0  0  0
   -1.0920    8.2910   21.0280 H   0  0  0  0  0  0  0  0  0  0  0  0
    0.0380   10.0860   21.2660 C   0  0  0  0  0  0  0  0  0  0  0  0
   -0.3750   11.1950   21.9950 C   0  0  0  0  0  0  0  0  0  0  0  0
   -0.0100   12.4800   21.5810 C   0  0  0  0  0  0  0  0  0  0  0  0
    0.7760   12.7120   20.4170 C   0  0  0  0  0  0  0  0  0  0  0  0
    1.2010   13.9830   19.9070 C   0  0  0  0  0  0  0  0  0  0  0  0
    1.9850   14.0050   18.7500 C   0  0  0  0  0  0  0  0  0  0  0  0
    2.3340   12.8710   18.1130 N   0  0  0  0  0  0  0  0  0  0  0  0
    1.9280   11.6610   18.5910 N   0  0  0  0  0  0  0  0  0  0  0  0
    1.1820   11.5720   19.6960 C   0  0  0  0  0  0  0  0  0  0  0  0
    0.8150   10.3000   20.1240 C   0  0  0  0  0  0  0  0  0  0  0  0
   -0.9710   11.0510   22.8910 H   0  0  0  0  0  0  0  0  0  0  0  0
    1.1560    9.4490   19.5360 H   0  0  0  0  0  0  0  0  0  0  0  0
    0.8180   15.2650   20.5980 C   0  0  0  0  0  0  0  0  0  0  0  0
   -0.1230   15.6490   20.1920 H   0  0  0  0  0  0  0  0  0  0  0  0
    0.6640   15.1470   21.6730 H   0  0  0  0  0  0  0  0  0  0  0  0
    1.6130   16.0090   20.4830 H   0  0  0  0  0  0  0  0  0  0  0  0
    2.4990   15.2670   18.1260 C   0  0  0  0  0  0  0  0  0  0  0  0
    1.6760   15.8660   17.7190 H   0  0  0  0  0  0  0  0  0  0  0  0
    3.1790   15.0370   17.2990 H   0  0  0  0  0  0  0  0  0  0  0  0
    3.0150   15.8800   18.8700 H   0  0  0  0  0  0  0  0  0  0  0  0
   -0.4330   13.5360   22.3480 O   0  0  0  0  0  0  0  0  0  0  0  0
   -1.1090   14.0330   21.8590 H   0  0  0  0  0  0  0  0  0  0  0  0
  1  6  1  0  0  0  0
  2  1  1  0  0  0  0
  2  3  1  0  0  0  0
  3  9  1  0  0  0  0
  3  4  1  0  0  0  0
  4  5  1  0  0  0  0
  4 34  1  0  0  0  0
  5 12  1  0  0  0  0
  6  5  1  0  0  0  0
  6 14  1  0  0  0  0
  6 13  1  0  0  0  0
  7  2  1  0  0  0  0
  8  2  1  0  0  0  0
 10  3  1  0  0  0  0
 11  5  1  0  0  0  0
 15 24  2  0  0  0  0
 15 16  1  0  0  0  0
 16 17  2  0  0  0  0
 17 18  1  0  0  0  0
 17 26  1  0  0  0  0
 18 19  1  0  0  0  0
 19 20  2  0  0  0  0
 19  1  1  0  0  0  0
 20 27  1  0  0  0  0
 21 28  1  0  0  0  0
 21 20  1  0  0  0  0
 22 21  2  0  0  0  0
 23 22  1  0  0  0  0
 23 18  2  0  0  0  0
 24 23  1  0  0  0  0
 25 16  1  0  0  0  0
 29 22  1  0  0  0  0
 30 32  1  0  0  0  0
 30 15  1  0  0  0  0
 31 30  1  0  0  0  0
 33 30  1  0  0  0  0
 34 37  1  0  0  0  0
 34 36  1  0  0  0  0
 34 35  1  0  0  0  0
 37 38  1  0  0  0  0
 39 37  1  0  0  0  0
 40 37  1  0  0  0  0
 40 41  1  0  0  0  0
 41 50  1  0  0  0  0
 42 41  2  0  0  0  0
 42 60  1  0  0  0  0
 43 42  1  0  0  0  0
 44 43  1  0  0  0  0
 44 52  1  0  0  0  0
 45 44  2  0  0  0  0
 46 47  2  0  0  0  0
 46 45  1  0  0  0  0
 47 48  1  0  0  0  0
 48 49  1  0  0  0  0
 48 43  2  0  0  0  0
 49 40  2  0  0  0  0
 51 49  1  0  0  0  0
 52 54  1  0  0  0  0
 53 52  1  0  0  0  0
 55 52  1  0  0  0  0
 56 45  1  0  0  0  0
 56 59  1  0  0  0  0
 57 56  1  0  0  0  0
 58 56  1  0  0  0  0
 61 60  1  0  0  0  0
M  END
>  <MODEL>
31

>  <REMARK>
 VINA RESULT:    -6.752      3.655     10.733
 INTER + INTRA:          -7.904
 INTER:                  -8.162
 INTRA:                   0.257
 UNBOUND:                 1.216
  Name = 
  8 active torsions:
  status: ('A' for Active; 'I' for Inactive)
    1  A    between atoms: C_1  and  C_2
    2  A    between atoms: C_6  and  N_7
    3  A    between atoms: N_10  and  C_11
    4  A    between atoms: C_11  and  C_12
    5  A    between atoms: C_12  and  C_13
    6  A    between atoms: C_15  and  O_16
    7  A    between atoms: C_18  and  C_19
    8  A    between atoms: C_20  and  C_21
                            x       y       z     vdW  Elec       q    Type
                         _______ _______ _______ _____ _____    ______ ____

>  <TORSDO>
F 8

$$$$
=
 OpenBabel07192307433D

 61 65  0  0  0  0  0  0  0  0999 V2000
    2.3160    6.2590   19.3430 N   0  0  0  0  0  0  0  0  0  0  0  0
    1.7090    5.7320   20.5880 C   0  0  0  0  0  0  0  0  0  0  0  0
    1.8700    4.1970   20.6480 C   0  0  0  0  0  0  0  0  0  0  0  0
    1.1590    3.4780   19.5590 N   0  0  0  0  0  0  0  0  0  0  0  0
    1.0500    4.3260   18.3480 C   0  0  0  0  0  0  0  0  0  0  0  0
    2.1700    5.3750   18.1640 C   0  0  0  0  0  0  0  0  0  0  0  0
    0.6420    5.9870   20.6530 H   0  0  0  0  0  0  0  0  0  0  0  0
    2.2100    6.1770   21.4560 H   0  0  0  0  0  0  0  0  0  0  0  0
    2.9450    3.9730   20.6200 H   0  0  0  0  0  0  0  0  0  0  0  0
    1.4870    3.8420   21.6120 H   0  0  0  0  0  0  0  0  0  0  0  0
    0.0920    4.8550   18.4230 H   0  0  0  0  0  0  0  0  0  0  0  0
    0.9690    3.7160   17.4400 H   0  0  0  0  0  0  0  0  0  0  0  0
    3.1250    4.8520   18.0260 H   0  0  0  0  0  0  0  0  0  0  0  0
    2.0010    5.9420   17.2400 H   0  0  0  0  0  0  0  0  0  0  0  0
   -0.1240    9.8190   22.0220 C   0  0  0  0  0  0  0  0  0  0  0  0
    0.1930    8.5040   22.3220 C   0  0  0  0  0  0  0  0  0  0  0  0
    0.8920    7.7610   21.3780 C   0  0  0  0  0  0  0  0  0  0  0  0
    1.2700    8.3310   20.1490 C   0  0  0  0  0  0  0  0  0  0  0  0
    1.9920    7.6210   19.1460 C   0  0  0  0  0  0  0  0  0  0  0  0
    2.3310    8.2860   17.9590 C   0  0  0  0  0  0  0  0  0  0  0  0
    1.9770    9.6170   17.7650 C   0  0  0  0  0  0  0  0  0  0  0  0
    1.2720   10.2970   18.7580 C   0  0  0  0  0  0  0  0  0  0  0  0
    0.9090    9.6820   19.9460 C   0  0  0  0  0  0  0  0  0  0  0  0
    0.2290   10.4050   20.8550 N   0  0  0  0  0  0  0  0  0  0  0  0
   -0.0920    8.0600   23.2700 H   0  0  0  0  0  0  0  0  0  0  0  0
    1.1540    6.7290   21.6020 H   0  0  0  0  0  0  0  0  0  0  0  0
    2.8630    7.7680   17.1660 H   0  0  0  0  0  0  0  0  0  0  0  0
    2.2430   10.1270   16.8440 H   0  0  0  0  0  0  0  0  0  0  0  0
    0.9960   11.3360   18.6010 H   0  0  0  0  0  0  0  0  0  0  0  0
   -0.8630   10.6620   23.0170 C   0  0  0  0  0  0  0  0  0  0  0  0
   -0.5020   11.6920   22.9780 H   0  0  0  0  0  0  0  0  0  0  0  0
   -0.7250   10.2690   24.0280 H   0  0  0  0  0  0  0  0  0  0  0  0
   -1.9370   10.6680   22.7990 H   0  0  0  0  0  0  0  0  0  0  0  0
    1.7950    2.1810   19.2560 C   0  0  0  0  0  0  0  0  0  0  0  0
    1.2640    1.3800   19.7870 H   0  0  0  0  0  0  0  0  0  0  0  0
    1.6970    1.9610   18.1850 H   0  0  0  0  0  0  0  0  0  0  0  0
    3.2830    2.0910   19.6530 C   0  0  0  0  0  0  0  0  0  0  0  0
    3.6630    1.0650   19.5730 H   0  0  0  0  0  0  0  0  0  0  0  0
    3.3670    2.3440   20.7180 H   0  0  0  0  0  0  0  0  0  0  0  0
    4.1720    3.0230   18.8620 C   0  0  0  0  0  0  0  0  0  0  0  0
    4.1890    2.9970   17.4730 C   0  0  0  0  0  0  0  0  0  0  0  0
    5.0040    3.8860   16.7650 C   0  0  0  0  0  0  0  0  0  0  0  0
    5.8430    4.8350   17.4160 C   0  0  0  0  0  0  0  0  0  0  0  0
    6.7130    5.7840   16.7880 C   0  0  0  0  0  0  0  0  0  0  0  0
    7.4530    6.6480   17.6020 C   0  0  0  0  0  0  0  0  0  0  0  0
    7.3670    6.5950   18.9450 N   0  0  0  0  0  0  0  0  0  0  0  0
    6.5450    5.6900   19.5470 N   0  0  0  0  0  0  0  0  0  0  0  0
    5.8080    4.8420   18.8240 C   0  0  0  0  0  0  0  0  0  0  0  0
    4.9880    3.9540   19.5130 C   0  0  0  0  0  0  0  0  0  0  0  0
    3.5560    2.2880   16.9470 H   0  0  0  0  0  0  0  0  0  0  0  0
    4.9910    4.0000   20.6020 H   0  0  0  0  0  0  0  0  0  0  0  0
    6.8310    5.8580   15.2880 C   0  0  0  0  0  0  0  0  0  0  0  0
    6.7220    4.8620   14.8480 H   0  0  0  0  0  0  0  0  0  0  0  0
    6.0640    6.4830   14.8250 H   0  0  0  0  0  0  0  0  0  0  0  0
    7.7940    6.2960   15.0050 H   0  0  0  0  0  0  0  0  0  0  0  0
    8.3870    7.6890   17.0660 C   0  0  0  0  0  0  0  0  0  0  0  0
    7.8350    8.5770   16.7370 H   0  0  0  0  0  0  0  0  0  0  0  0
    8.9370    7.3040   16.2020 H   0  0  0  0  0  0  0  0  0  0  0  0
    9.0910    8.0070   17.8410 H   0  0  0  0  0  0  0  0  0  0  0  0
    4.9680    3.8250   15.3950 O   0  0  0  0  0  0  0  0  0  0  0  0
    5.6730    4.3860   15.0340 H   0  0  0  0  0  0  0  0  0  0  0  0
  1  2  1  0  0  0  0
  2  3  1  0  0  0  0
  2  7  1  0  0  0  0
  2  8  1  0  0  0  0
  3 10  1  0  0  0  0
  4  3  1  0  0  0  0
  5 11  1  0  0  0  0
  5  4  1  0  0  0  0
  6  5  1  0  0  0  0
  6  1  1  0  0  0  0
  9  3  1  0  0  0  0
 12  5  1  0  0  0  0
 13  6  1  0  0  0  0
 14  6  1  0  0  0  0
 15 16  1  0  0  0  0
 15 30  1  0  0  0  0
 16 25  1  0  0  0  0
 17 26  1  0  0  0  0
 17 16  2  0  0  0  0
 18 17  1  0  0  0  0
 19  1  1  0  0  0  0
 19 18  2  0  0  0  0
 20 19  1  0  0  0  0
 21 20  2  0  0  0  0
 21 22  1  0  0  0  0
 22 23  2  0  0  0  0
 23 18  1  0  0  0  0
 23 24  1  0  0  0  0
 24 15  2  0  0  0  0
 27 20  1  0  0  0  0
 28 21  1  0  0  0  0
 29 22  1  0  0  0  0
 30 32  1  0  0  0  0
 31 30  1  0  0  0  0
 33 30  1  0  0  0  0
 34  4  1  0  0  0  0
 34 37  1  0  0  0  0
 34 35  1  0  0  0  0
 36 34  1  0  0  0  0
 37 39  1  0  0  0  0
 38 37  1  0  0  0  0
 40 49  1  0  0  0  0
 40 37  1  0  0  0  0
 41 40  2  0  0  0  0
 42 43  2  0  0  0  0
 42 41  1  0  0  0  0
 43 48  1  0  0  0  0
 44 43  1  0  0  0  0
 44 45  2  0  0  0  0
 45 46  1  0  0  0  0
 46 47  2  0  0  0  0
 48 49  2  0  0  0  0
 48 47  1  0  0  0  0
 49 51  1  0  0  0  0
 50 41  1  0  0  0  0
 52 44  1  0  0  0  0
 53 52  1  0  0  0  0
 54 52  1  0  0  0  0
 55 52  1  0  0  0  0
 56 45  1  0  0  0  0
 56 59  1  0  0  0  0
 57 56  1  0  0  0  0
 58 56  1  0  0  0  0
 60 42  1  0  0  0  0
 61 60  1  0  0  0  0
M  END
>  <MODEL>
32

>  <REMARK>
 VINA RESULT:    -6.716      3.004      5.989
 INTER + INTRA:          -7.855
 INTER:                  -9.677
 INTRA:                   1.822
 UNBOUND:                 1.216
  Name = 
  8 active torsions:
  status: ('A' for Active; 'I' for Inactive)
    1  A    between atoms: C_1  and  C_2
    2  A    between atoms: C_6  and  N_7
    3  A    between atoms: N_10  and  C_11
    4  A    between atoms: C_11  and  C_12
    5  A    between atoms: C_12  and  C_13
    6  A    between atoms: C_15  and  O_16
    7  A    between atoms: C_18  and  C_19
    8  A    between atoms: C_20  and  C_21
                            x       y       z     vdW  Elec       q    Type
                         _______ _______ _______ _____ _____    ______ ____

>  <TORSDO>
F 8

$$$$
=
 OpenBabel07192307433D

 61 65  0  0  0  0  0  0  0  0999 V2000
   -0.2700   11.1460   21.3630 N   0  0  0  0  0  0  0  0  0  0  0  0
   -0.2960   10.3300   22.6000 C   0  0  0  0  0  0  0  0  0  0  0  0
    0.7650    9.2110   22.5200 C   0  0  0  0  0  0  0  0  0  0  0  0
    0.5200    8.2320   21.4280 N   0  0  0  0  0  0  0  0  0  0  0  0
   -0.2100    8.8650   20.3040 C   0  0  0  0  0  0  0  0  0  0  0  0
    0.0200   10.3820   20.1270 C   0  0  0  0  0  0  0  0  0  0  0  0
   -1.2850    9.8810   22.7630 H   0  0  0  0  0  0  0  0  0  0  0  0
   -0.0760   10.9690   23.4640 H   0  0  0  0  0  0  0  0  0  0  0  0
    1.7460    9.6900   22.3950 H   0  0  0  0  0  0  0  0  0  0  0  0
    0.7820    8.6760   23.4760 H   0  0  0  0  0  0  0  0  0  0  0  0
   -1.2780    8.6980   20.4920 H   0  0  0  0  0  0  0  0  0  0  0  0
   -0.0040    8.3520   19.3560 H   0  0  0  0  0  0  0  0  0  0  0  0
    1.0750   10.5530   19.8770 H   0  0  0  0  0  0  0  0  0  0  0  0
   -0.5560   10.7500   19.2690 H   0  0  0  0  0  0  0  0  0  0  0  0
   -4.1220   11.9190   18.1420 C   0  0  0  0  0  0  0  0  0  0  0  0
   -3.1010   10.9810   18.1410 C   0  0  0  0  0  0  0  0  0  0  0  0
   -2.1800   11.0060   19.1820 C   0  0  0  0  0  0  0  0  0  0  0  0
   -2.2820   11.9600   20.2110 C   0  0  0  0  0  0  0  0  0  0  0  0
   -1.3710   12.0310   21.3050 C   0  0  0  0  0  0  0  0  0  0  0  0
   -1.5690   13.0130   22.2860 C   0  0  0  0  0  0  0  0  0  0  0  0
   -2.6390   13.8990   22.1990 C   0  0  0  0  0  0  0  0  0  0  0  0
   -3.5200   13.8140   21.1210 C   0  0  0  0  0  0  0  0  0  0  0  0
   -3.3650   12.8640   20.1240 C   0  0  0  0  0  0  0  0  0  0  0  0
   -4.2580   12.8470   19.1180 N   0  0  0  0  0  0  0  0  0  0  0  0
   -3.0200   10.2400   17.3540 H   0  0  0  0  0  0  0  0  0  0  0  0
   -1.3780   10.2730   19.1990 H   0  0  0  0  0  0  0  0  0  0  0  0
   -0.8820   13.1080   23.1220 H   0  0  0  0  0  0  0  0  0  0  0  0
   -2.7860   14.6580   22.9620 H   0  0  0  0  0  0  0  0  0  0  0  0
   -4.3540   14.5090   21.0570 H   0  0  0  0  0  0  0  0  0  0  0  0
   -5.1460   11.9190   17.0480 C   0  0  0  0  0  0  0  0  0  0  0  0
   -5.3190   12.9390   16.6950 H   0  0  0  0  0  0  0  0  0  0  0  0
   -6.0890   11.4970   17.4080 H   0  0  0  0  0  0  0  0  0  0  0  0
   -4.8080   11.3160   16.1990 H   0  0  0  0  0  0  0  0  0  0  0  0
    1.7730    7.5990   20.9730 C   0  0  0  0  0  0  0  0  0  0  0  0
    2.1000    8.0670   20.0350 H   0  0  0  0  0  0  0  0  0  0  0  0
    2.5690    7.7830   21.7060 H   0  0  0  0  0  0  0  0  0  0  0  0
    1.6650    6.0810   20.7190 C   0  0  0  0  0  0  0  0  0  0  0  0
    0.6300    5.7760   20.5190 H   0  0  0  0  0  0  0  0  0  0  0  0
    1.9420    5.5600   21.6450 H   0  0  0  0  0  0  0  0  0  0  0  0
    2.5600    5.5940   19.6030 C   0  0  0  0  0  0  0  0  0  0  0  0
    2.7690    4.2360   19.3880 C   0  0  0  0  0  0  0  0  0  0  0  0
    3.5840    3.8120   18.3330 C   0  0  0  0  0  0  0  0  0  0  0  0
    4.2300    4.7260   17.4530 C   0  0  0  0  0  0  0  0  0  0  0  0
    5.0820    4.3970   16.3480 C   0  0  0  0  0  0  0  0  0  0  0  0
    5.6160    5.4410   15.5870 C   0  0  0  0  0  0  0  0  0  0  0  0
    5.3530    6.7300   15.8760 N   0  0  0  0  0  0  0  0  0  0  0  0
    4.5470    7.0480   16.9280 N   0  0  0  0  0  0  0  0  0  0  0  0
    4.0020    6.0950   17.6910 C   0  0  0  0  0  0  0  0  0  0  0  0
    3.1850    6.5010   18.7410 C   0  0  0  0  0  0  0  0  0  0  0  0
    2.2870    3.5140   20.0390 H   0  0  0  0  0  0  0  0  0  0  0  0
    3.0340    7.5700   18.8840 H   0  0  0  0  0  0  0  0  0  0  0  0
    5.3970    2.9630   16.0090 C   0  0  0  0  0  0  0  0  0  0  0  0
    4.8560    2.6570   15.1080 H   0  0  0  0  0  0  0  0  0  0  0  0
    6.4560    2.7910   15.8050 H   0  0  0  0  0  0  0  0  0  0  0  0
    5.1380    2.3100   16.8490 H   0  0  0  0  0  0  0  0  0  0  0  0
    6.5100    5.2270   14.4040 C   0  0  0  0  0  0  0  0  0  0  0  0
    5.9330    4.9010   13.5310 H   0  0  0  0  0  0  0  0  0  0  0  0
    7.2500    4.4500   14.6180 H   0  0  0  0  0  0  0  0  0  0  0  0
    7.0180    6.1570   14.1340 H   0  0  0  0  0  0  0  0  0  0  0  0
    3.7430    2.4610   18.1600 O   0  0  0  0  0  0  0  0  0  0  0  0
    4.6590    2.2800   17.8960 H   0  0  0  0  0  0  0  0  0  0  0  0
  1  2  1  0  0  0  0
  2  7  1  0  0  0  0
  2  8  1  0  0  0  0
  3  2  1  0  0  0  0
  3 10  1  0  0  0  0
  4  3  1  0  0  0  0
  5 11  1  0  0  0  0
  5  4  1  0  0  0  0
  6  5  1  0  0  0  0
  6  1  1  0  0  0  0
  9  3  1  0  0  0  0
 12  5  1  0  0  0  0
 13  6  1  0  0  0  0
 14  6  1  0  0  0  0
 15 24  1  0  0  0  0
 16 15  2  0  0  0  0
 16 17  1  0  0  0  0
 17 26  1  0  0  0  0
 17 18  2  0  0  0  0
 18 19  1  0  0  0  0
 19  1  1  0  0  0  0
 19 20  2  0  0  0  0
 20 27  1  0  0  0  0
 21 20  1  0  0  0  0
 21 28  1  0  0  0  0
 22 21  2  0  0  0  0
 23 18  1  0  0  0  0
 23 22  1  0  0  0  0
 24 23  2  0  0  0  0
 25 16  1  0  0  0  0
 29 22  1  0  0  0  0
 30 32  1  0  0  0  0
 30 15  1  0  0  0  0
 31 30  1  0  0  0  0
 33 30  1  0  0  0  0
 34  4  1  0  0  0  0
 34 36  1  0  0  0  0
 35 34  1  0  0  0  0
 37 34  1  0  0  0  0
 37 39  1  0  0  0  0
 38 37  1  0  0  0  0
 40 37  1  0  0  0  0
 41 40  1  0  0  0  0
 41 50  1  0  0  0  0
 42 41  2  0  0  0  0
 43 48  1  0  0  0  0
 43 42  1  0  0  0  0
 44 43  2  0  0  0  0
 45 46  2  0  0  0  0
 45 44  1  0  0  0  0
 46 47  1  0  0  0  0
 47 48  2  0  0  0  0
 48 49  1  0  0  0  0
 49 51  1  0  0  0  0
 49 40  2  0  0  0  0
 52 44  1  0  0  0  0
 52 55  1  0  0  0  0
 53 52  1  0  0  0  0
 54 52  1  0  0  0  0
 56 58  1  0  0  0  0
 56 45  1  0  0  0  0
 57 56  1  0  0  0  0
 59 56  1  0  0  0  0
 60 42  1  0  0  0  0
 61 60  1  0  0  0  0
M  END
>  <MODEL>
33

>  <REMARK>
 VINA RESULT:    -6.381      2.291      3.970
 INTER + INTRA:          -7.403
 INTER:                  -8.620
 INTRA:                   1.216
 UNBOUND:                 1.216
  Name = 
  8 active torsions:
  status: ('A' for Active; 'I' for Inactive)
    1  A    between atoms: C_1  and  C_2
    2  A    between atoms: C_6  and  N_7
    3  A    between atoms: N_10  and  C_11
    4  A    between atoms: C_11  and  C_12
    5  A    between atoms: C_12  and  C_13
    6  A    between atoms: C_15  and  O_16
    7  A    between atoms: C_18  and  C_19
    8  A    between atoms: C_20  and  C_21
                            x       y       z     vdW  Elec       q    Type
                         _______ _______ _______ _____ _____    ______ ____

>  <TORSDO>
F 8

$$$$
