=
 OpenBabel07192307433D

 51 56  0  0  0  0  0  0  0  0999 V2000
    3.0500    9.7900   17.7690 O   0  0  0  0  0  0  0  0  0  0  0  0
    2.1320    9.1470   18.2660 C   0  0  0  0  0  0  0  0  0  0  0  0
    2.3570    7.8510   18.8960 C   0  0  0  0  0  0  0  0  0  0  0  0
    1.8880    7.4370   20.1420 C   0  0  0  0  0  0  0  0  0  0  0  0
    2.3240    6.1460   20.3290 N   0  0  0  0  0  0  0  0  0  0  0  0
    3.0880    5.7250   19.2690 C   0  0  0  0  0  0  0  0  0  0  0  0
    3.7350    4.5030   19.0530 C   0  0  0  0  0  0  0  0  0  0  0  0
    4.4610    4.3550   17.8680 C   0  0  0  0  0  0  0  0  0  0  0  0
    4.5350    5.3940   16.9450 C   0  0  0  0  0  0  0  0  0  0  0  0
    5.5280    5.1590   15.3500 Br  0  0  0  0  0  0  0  0  0  0  0  0
    3.8850    6.6110   17.1720 C   0  0  0  0  0  0  0  0  0  0  0  0
    3.1440    6.7800   18.3600 C   0  0  0  0  0  0  0  0  0  0  0  0
    2.1360    5.5940   21.1550 H   0  0  0  0  0  0  0  0  0  0  0  0
    3.6800    3.6940   19.7760 H   0  0  0  0  0  0  0  0  0  0  0  0
    4.9710    3.4140   17.6760 H   0  0  0  0  0  0  0  0  0  0  0  0
    3.9490    7.4190   16.4500 H   0  0  0  0  0  0  0  0  0  0  0  0
    1.1200    8.1450   21.1640 C   0  0  0  0  0  0  0  0  0  0  0  0
   -0.2780    8.0520   21.1930 C   0  0  0  0  0  0  0  0  0  0  0  0
   -1.0100    8.7450   22.1620 C   0  0  0  0  0  0  0  0  0  0  0  0
   -0.3500    9.5240   23.1110 C   0  0  0  0  0  0  0  0  0  0  0  0
    1.0400    9.6170   23.0900 C   0  0  0  0  0  0  0  0  0  0  0  0
    1.7730    8.9310   22.1200 C   0  0  0  0  0  0  0  0  0  0  0  0
   -0.8110    7.4640   20.4480 H   0  0  0  0  0  0  0  0  0  0  0  0
   -2.0960    8.6870   22.1690 H   0  0  0  0  0  0  0  0  0  0  0  0
   -0.9210   10.0650   23.8610 H   0  0  0  0  0  0  0  0  0  0  0  0
    1.5540   10.2250   23.8310 H   0  0  0  0  0  0  0  0  0  0  0  0
    2.8580    9.0110   22.1200 H   0  0  0  0  0  0  0  0  0  0  0  0
    0.7590    9.6160   18.2150 C   0  0  0  0  0  0  0  0  0  0  0  0
   -0.3050    9.3080   17.3790 C   0  0  0  0  0  0  0  0  0  0  0  0
   -1.4140   10.0860   17.7850 C   0  0  0  0  0  0  0  0  0  0  0  0
   -2.7790   10.1560   17.3140 C   0  0  0  0  0  0  0  0  0  0  0  0
   -3.2100    9.4860   16.3810 O   0  0  0  0  0  0  0  0  0  0  0  0
   -3.5670   11.0540   18.0250 N   0  0  0  0  0  0  0  0  0  0  0  0
   -3.1580   11.8760   19.0650 N   0  0  0  0  0  0  0  0  0  0  0  0
   -1.9100   11.8230   19.4530 C   0  0  0  0  0  0  0  0  0  0  0  0
   -1.0050   10.8890   18.8260 C   0  0  0  0  0  0  0  0  0  0  0  0
    0.2980   10.5750   19.0990 N   0  0  0  0  0  0  0  0  0  0  0  0
   -0.2980    8.5920   16.5660 H   0  0  0  0  0  0  0  0  0  0  0  0
   -4.5340   11.1470   17.7340 H   0  0  0  0  0  0  0  0  0  0  0  0
    0.8750   10.9740   19.8290 H   0  0  0  0  0  0  0  0  0  0  0  0
   -1.4500   12.7270   20.5370 C   0  0  0  0  0  0  0  0  0  0  0  0
   -0.7130   13.8860   20.2510 C   0  0  0  0  0  0  0  0  0  0  0  0
   -0.3080   14.7250   21.2910 C   0  0  0  0  0  0  0  0  0  0  0  0
   -0.6530   14.4120   22.6020 C   0  0  0  0  0  0  0  0  0  0  0  0
   -0.2660   15.2190   23.5960 F   0  0  0  0  0  0  0  0  0  0  0  0
   -1.4040   13.2770   22.8950 C   0  0  0  0  0  0  0  0  0  0  0  0
   -1.8100   12.4330   21.8590 C   0  0  0  0  0  0  0  0  0  0  0  0
   -0.4780   14.1630   19.2260 H   0  0  0  0  0  0  0  0  0  0  0  0
    0.2610   15.6280   21.0870 H   0  0  0  0  0  0  0  0  0  0  0  0
   -1.6740   13.0570   23.9230 H   0  0  0  0  0  0  0  0  0  0  0  0
   -2.4040   11.5500   22.0840 H   0  0  0  0  0  0  0  0  0  0  0  0
  1  2  2  0  0  0  0
  2  3  1  0  0  0  0
  3  4  2  0  0  0  0
  4  5  1  0  0  0  0
  4 17  1  0  0  0  0
  5 13  1  0  0  0  0
  6  5  1  0  0  0  0
  7  6  1  0  0  0  0
  7 14  1  0  0  0  0
  8  7  2  0  0  0  0
  9 11  2  0  0  0  0
  9  8  1  0  0  0  0
 10  9  1  0  0  0  0
 11 12  1  0  0  0  0
 12  3  1  0  0  0  0
 12  6  2  0  0  0  0
 15  8  1  0  0  0  0
 16 11  1  0  0  0  0
 17 18  2  0  0  0  0
 17 22  1  0  0  0  0
 18 19  1  0  0  0  0
 19 24  1  0  0  0  0
 19 20  2  0  0  0  0
 20 25  1  0  0  0  0
 21 20  1  0  0  0  0
 21 26  1  0  0  0  0
 22 21  2  0  0  0  0
 23 18  1  0  0  0  0
 27 22  1  0  0  0  0
 28  2  1  0  0  0  0
 28 37  1  0  0  0  0
 29 30  1  0  0  0  0
 29 28  2  0  0  0  0
 30 36  2  0  0  0  0
 31 30  1  0  0  0  0
 31 33  1  0  0  0  0
 32 31  2  0  0  0  0
 33 34  1  0  0  0  0
 34 35  2  0  0  0  0
 35 41  1  0  0  0  0
 36 37  1  0  0  0  0
 36 35  1  0  0  0  0
 37 40  1  0  0  0  0
 38 29  1  0  0  0  0
 39 33  1  0  0  0  0
 41 47  1  0  0  0  0
 42 41  2  0  0  0  0
 42 43  1  0  0  0  0
 43 44  2  0  0  0  0
 44 46  1  0  0  0  0
 44 45  1  0  0  0  0
 46 50  1  0  0  0  0
 47 51  1  0  0  0  0
 47 46  2  0  0  0  0
 48 42  1  0  0  0  0
 49 43  1  0  0  0  0
M  END
>  <MODEL>
1

>  <REMARK>
 VINA RESULT:   -12.816      0.000      0.000
 INTER + INTRA:         -11.812
 INTER:                  -9.888
 INTRA:                  -1.923
 UNBOUND:                 4.002
  Name = 
  4 active torsions:
  status: ('A' for Active; 'I' for Inactive)
    1  A    between atoms: C_2  and  C_3
    2  A    between atoms: C_2  and  C_20
    3  A    between atoms: C_10  and  C_11
    4  A    between atoms: C_21  and  C_22
                            x       y       z     vdW  Elec       q    Type
                         _______ _______ _______ _____ _____    ______ ____

>  <TORSDO>
F 4

$$$$
=
 OpenBabel07192307433D

 51 56  0  0  0  0  0  0  0  0999 V2000
    2.3280   10.3170   17.7920 O   0  0  0  0  0  0  0  0  0  0  0  0
    1.4190    9.6810   18.3150 C   0  0  0  0  0  0  0  0  0  0  0  0
    1.6830    8.5550   19.2030 C   0  0  0  0  0  0  0  0  0  0  0  0
    1.2690    8.4240   20.5270 C   0  0  0  0  0  0  0  0  0  0  0  0
    1.7260    7.2060   20.9740 N   0  0  0  0  0  0  0  0  0  0  0  0
    2.4520    6.5640   20.0010 C   0  0  0  0  0  0  0  0  0  0  0  0
    3.1030    5.3260   20.0310 C   0  0  0  0  0  0  0  0  0  0  0  0
    3.7840    4.9230   18.8790 C   0  0  0  0  0  0  0  0  0  0  0  0
    3.8090    5.7360   17.7480 C   0  0  0  0  0  0  0  0  0  0  0  0
    4.7410    5.1590   16.2040 Br  0  0  0  0  0  0  0  0  0  0  0  0
    3.1560    6.9710   17.7300 C   0  0  0  0  0  0  0  0  0  0  0  0
    2.4610    7.3950   18.8810 C   0  0  0  0  0  0  0  0  0  0  0  0
    1.5770    6.8470   21.9080 H   0  0  0  0  0  0  0  0  0  0  0  0
    3.0860    4.6950   20.9150 H   0  0  0  0  0  0  0  0  0  0  0  0
    4.2960    3.9650   18.8760 H   0  0  0  0  0  0  0  0  0  0  0  0
    3.1820    7.6020   16.8460 H   0  0  0  0  0  0  0  0  0  0  0  0
    0.5340    9.3360   21.4000 C   0  0  0  0  0  0  0  0  0  0  0  0
   -0.4560    8.8500   22.2640 C   0  0  0  0  0  0  0  0  0  0  0  0
   -1.1700    9.7290   23.0840 C   0  0  0  0  0  0  0  0  0  0  0  0
   -0.8900   11.0940   23.0540 C   0  0  0  0  0  0  0  0  0  0  0  0
    0.0970   11.5840   22.2010 C   0  0  0  0  0  0  0  0  0  0  0  0
    0.8060   10.7090   21.3760 C   0  0  0  0  0  0  0  0  0  0  0  0
   -0.7010    7.7900   22.2860 H   0  0  0  0  0  0  0  0  0  0  0  0
   -1.9520    9.3510   23.7380 H   0  0  0  0  0  0  0  0  0  0  0  0
   -1.4470   11.7770   23.6900 H   0  0  0  0  0  0  0  0  0  0  0  0
    0.3150   12.6490   22.1780 H   0  0  0  0  0  0  0  0  0  0  0  0
    1.5770   11.1070   20.7180 H   0  0  0  0  0  0  0  0  0  0  0  0
    0.0250    9.9830   18.0420 C   0  0  0  0  0  0  0  0  0  0  0  0
   -0.8330    9.5990   17.0210 C   0  0  0  0  0  0  0  0  0  0  0  0
   -2.0870   10.2100   17.2570 C   0  0  0  0  0  0  0  0  0  0  0  0
   -3.3500   10.1420   16.5570 C   0  0  0  0  0  0  0  0  0  0  0  0
   -3.5260    9.4840   15.5370 O   0  0  0  0  0  0  0  0  0  0  0  0
   -4.3570   10.8920   17.1540 N   0  0  0  0  0  0  0  0  0  0  0  0
   -4.2400   11.6930   18.2820 N   0  0  0  0  0  0  0  0  0  0  0  0
   -3.0790   11.7680   18.8790 C   0  0  0  0  0  0  0  0  0  0  0  0
   -1.9680   10.9910   18.3840 C   0  0  0  0  0  0  0  0  0  0  0  0
   -0.7000   10.8220   18.8690 N   0  0  0  0  0  0  0  0  0  0  0  0
   -0.5960    8.9410   16.1940 H   0  0  0  0  0  0  0  0  0  0  0  0
   -5.2650   10.8850   16.7020 H   0  0  0  0  0  0  0  0  0  0  0  0
   -0.3110   11.2430   19.7040 H   0  0  0  0  0  0  0  0  0  0  0  0
   -2.9310   12.6520   20.0620 C   0  0  0  0  0  0  0  0  0  0  0  0
   -1.9480   13.6520   20.1010 C   0  0  0  0  0  0  0  0  0  0  0  0
   -1.8440   14.4800   21.2220 C   0  0  0  0  0  0  0  0  0  0  0  0
   -2.7270   14.3140   22.2840 C   0  0  0  0  0  0  0  0  0  0  0  0
   -2.6250   15.1100   23.3550 F   0  0  0  0  0  0  0  0  0  0  0  0
   -3.7200   13.3410   22.2460 C   0  0  0  0  0  0  0  0  0  0  0  0
   -3.8280   12.5090   21.1290 C   0  0  0  0  0  0  0  0  0  0  0  0
   -1.2820   13.8180   19.2570 H   0  0  0  0  0  0  0  0  0  0  0  0
   -1.0890   15.2600   21.2680 H   0  0  0  0  0  0  0  0  0  0  0  0
   -4.4090   13.2360   23.0790 H   0  0  0  0  0  0  0  0  0  0  0  0
   -4.6100   11.7530   21.0920 H   0  0  0  0  0  0  0  0  0  0  0  0
  1  2  2  0  0  0  0
  2  3  1  0  0  0  0
  3  4  2  0  0  0  0
  4  5  1  0  0  0  0
  4 17  1  0  0  0  0
  5 13  1  0  0  0  0
  6  7  1  0  0  0  0
  6  5  1  0  0  0  0
  7 14  1  0  0  0  0
  8  7  2  0  0  0  0
  9  8  1  0  0  0  0
 10  9  1  0  0  0  0
 11  9  2  0  0  0  0
 11 12  1  0  0  0  0
 12  3  1  0  0  0  0
 12  6  2  0  0  0  0
 15  8  1  0  0  0  0
 16 11  1  0  0  0  0
 17 18  1  0  0  0  0
 18 23  1  0  0  0  0
 18 19  2  0  0  0  0
 19 24  1  0  0  0  0
 20 19  1  0  0  0  0
 20 25  1  0  0  0  0
 21 20  2  0  0  0  0
 22 17  2  0  0  0  0
 22 21  1  0  0  0  0
 26 21  1  0  0  0  0
 27 22  1  0  0  0  0
 28  2  1  0  0  0  0
 28 37  1  0  0  0  0
 29 30  1  0  0  0  0
 29 28  2  0  0  0  0
 30 36  2  0  0  0  0
 31 33  1  0  0  0  0
 31 30  1  0  0  0  0
 32 31  2  0  0  0  0
 33 34  1  0  0  0  0
 34 35  2  0  0  0  0
 35 41  1  0  0  0  0
 36 37  1  0  0  0  0
 36 35  1  0  0  0  0
 37 40  1  0  0  0  0
 38 29  1  0  0  0  0
 39 33  1  0  0  0  0
 41 42  2  0  0  0  0
 41 47  1  0  0  0  0
 42 43  1  0  0  0  0
 43 49  1  0  0  0  0
 43 44  2  0  0  0  0
 44 45  1  0  0  0  0
 46 44  1  0  0  0  0
 46 50  1  0  0  0  0
 47 46  2  0  0  0  0
 48 42  1  0  0  0  0
 51 47  1  0  0  0  0
M  END
>  <MODEL>
2

>  <REMARK>
 VINA RESULT:   -12.651      1.284      1.438
 INTER + INTRA:         -11.608
 INTER:                 -10.193
 INTRA:                  -1.415
 UNBOUND:                 4.002
  Name = 
  4 active torsions:
  status: ('A' for Active; 'I' for Inactive)
    1  A    between atoms: C_2  and  C_3
    2  A    between atoms: C_2  and  C_20
    3  A    between atoms: C_10  and  C_11
    4  A    between atoms: C_21  and  C_22
                            x       y       z     vdW  Elec       q    Type
                         _______ _______ _______ _____ _____    ______ ____

>  <TORSDO>
F 4

$$$$
=
 OpenBabel07192307433D

 51 56  0  0  0  0  0  0  0  0999 V2000
    0.6130    8.7010   17.0590 O   0  0  0  0  0  0  0  0  0  0  0  0
    1.3730    8.9960   17.9750 C   0  0  0  0  0  0  0  0  0  0  0  0
    2.0690    7.9770   18.7520 C   0  0  0  0  0  0  0  0  0  0  0  0
    1.8990    7.7010   20.1070 C   0  0  0  0  0  0  0  0  0  0  0  0
    2.7430    6.6600   20.4170 N   0  0  0  0  0  0  0  0  0  0  0  0
    3.4800    6.2810   19.3210 C   0  0  0  0  0  0  0  0  0  0  0  0
    4.4560    5.2860   19.1930 C   0  0  0  0  0  0  0  0  0  0  0  0
    5.0560    5.1250   17.9410 C   0  0  0  0  0  0  0  0  0  0  0  0
    4.6890    5.9340   16.8680 C   0  0  0  0  0  0  0  0  0  0  0  0
    5.5220    5.6880   15.1850 Br  0  0  0  0  0  0  0  0  0  0  0  0
    3.7130    6.9240   17.0090 C   0  0  0  0  0  0  0  0  0  0  0  0
    3.0940    7.1020   18.2630 C   0  0  0  0  0  0  0  0  0  0  0  0
    2.8360    6.2540   21.3380 H   0  0  0  0  0  0  0  0  0  0  0  0
    4.7440    4.6580   20.0310 H   0  0  0  0  0  0  0  0  0  0  0  0
    5.8150    4.3580   17.8140 H   0  0  0  0  0  0  0  0  0  0  0  0
    3.4340    7.5540   16.1700 H   0  0  0  0  0  0  0  0  0  0  0  0
    1.0630    8.3400   21.1210 C   0  0  0  0  0  0  0  0  0  0  0  0
   -0.3270    8.1630   21.1110 C   0  0  0  0  0  0  0  0  0  0  0  0
   -1.1250    8.7910   22.0720 C   0  0  0  0  0  0  0  0  0  0  0  0
   -0.5380    9.5870   23.0530 C   0  0  0  0  0  0  0  0  0  0  0  0
    0.8450    9.7640   23.0730 C   0  0  0  0  0  0  0  0  0  0  0  0
    1.6430    9.1430   22.1100 C   0  0  0  0  0  0  0  0  0  0  0  0
   -0.8040    7.5600   20.3400 H   0  0  0  0  0  0  0  0  0  0  0  0
   -2.2050    8.6680   22.0480 H   0  0  0  0  0  0  0  0  0  0  0  0
   -1.1590   10.0780   23.7990 H   0  0  0  0  0  0  0  0  0  0  0  0
    1.3010   10.3850   23.8390 H   0  0  0  0  0  0  0  0  0  0  0  0
    2.7210    9.2880   22.1420 H   0  0  0  0  0  0  0  0  0  0  0  0
    1.5870   10.3760   18.3720 C   0  0  0  0  0  0  0  0  0  0  0  0
    2.5700   11.3010   18.0500 C   0  0  0  0  0  0  0  0  0  0  0  0
    2.2840   12.4980   18.7460 C   0  0  0  0  0  0  0  0  0  0  0  0
    2.9300   13.7910   18.7660 C   0  0  0  0  0  0  0  0  0  0  0  0
    3.9400   14.0560   18.1230 O   0  0  0  0  0  0  0  0  0  0  0  0
    2.2920   14.7180   19.5830 N   0  0  0  0  0  0  0  0  0  0  0  0
    1.1720   14.4990   20.3730 N   0  0  0  0  0  0  0  0  0  0  0  0
    0.6240   13.3110   20.3670 C   0  0  0  0  0  0  0  0  0  0  0  0
    1.1640   12.2790   19.5160 C   0  0  0  0  0  0  0  0  0  0  0  0
    0.7320   11.0060   19.2590 N   0  0  0  0  0  0  0  0  0  0  0  0
    3.4060   11.1450   17.3780 H   0  0  0  0  0  0  0  0  0  0  0  0
    2.7060   15.6430   19.6390 H   0  0  0  0  0  0  0  0  0  0  0  0
   -0.0840   10.5540   19.6510 H   0  0  0  0  0  0  0  0  0  0  0  0
   -0.5500   13.0530   21.2380 C   0  0  0  0  0  0  0  0  0  0  0  0
   -0.5160   13.3520   22.6080 C   0  0  0  0  0  0  0  0  0  0  0  0
   -1.6420   13.1130   23.3990 C   0  0  0  0  0  0  0  0  0  0  0  0
   -2.7940   12.5930   22.8170 C   0  0  0  0  0  0  0  0  0  0  0  0
   -3.8710   12.3670   23.5780 F   0  0  0  0  0  0  0  0  0  0  0  0
   -2.8460   12.3140   21.4550 C   0  0  0  0  0  0  0  0  0  0  0  0
   -1.7220   12.5490   20.6590 C   0  0  0  0  0  0  0  0  0  0  0  0
    0.3640   13.8020   23.0630 H   0  0  0  0  0  0  0  0  0  0  0  0
   -1.6330   13.3410   24.4610 H   0  0  0  0  0  0  0  0  0  0  0  0
   -3.7580   11.9210   21.0170 H   0  0  0  0  0  0  0  0  0  0  0  0
   -1.7640   12.3400   19.5920 H   0  0  0  0  0  0  0  0  0  0  0  0
  1  2  2  0  0  0  0
  2 28  1  0  0  0  0
  2  3  1  0  0  0  0
  3  4  2  0  0  0  0
  4  5  1  0  0  0  0
  4 17  1  0  0  0  0
  5 13  1  0  0  0  0
  6  5  1  0  0  0  0
  7  6  1  0  0  0  0
  7 14  1  0  0  0  0
  8  7  2  0  0  0  0
  9 11  2  0  0  0  0
  9  8  1  0  0  0  0
 10  9  1  0  0  0  0
 11 12  1  0  0  0  0
 12  3  1  0  0  0  0
 12  6  2  0  0  0  0
 15  8  1  0  0  0  0
 16 11  1  0  0  0  0
 17 22  1  0  0  0  0
 18 17  2  0  0  0  0
 18 19  1  0  0  0  0
 19 20  2  0  0  0  0
 20 21  1  0  0  0  0
 20 25  1  0  0  0  0
 21 26  1  0  0  0  0
 22 27  1  0  0  0  0
 22 21  2  0  0  0  0
 23 18  1  0  0  0  0
 24 19  1  0  0  0  0
 28 37  1  0  0  0  0
 29 28  2  0  0  0  0
 29 30  1  0  0  0  0
 30 31  1  0  0  0  0
 30 36  2  0  0  0  0
 31 33  1  0  0  0  0
 32 31  2  0  0  0  0
 33 39  1  0  0  0  0
 33 34  1  0  0  0  0
 35 34  2  0  0  0  0
 35 41  1  0  0  0  0
 36 35  1  0  0  0  0
 37 36  1  0  0  0  0
 37 40  1  0  0  0  0
 38 29  1  0  0  0  0
 41 42  1  0  0  0  0
 42 48  1  0  0  0  0
 42 43  2  0  0  0  0
 43 49  1  0  0  0  0
 44 43  1  0  0  0  0
 44 45  1  0  0  0  0
 46 44  2  0  0  0  0
 47 41  2  0  0  0  0
 47 46  1  0  0  0  0
 50 46  1  0  0  0  0
 51 47  1  0  0  0  0
M  END
>  <MODEL>
3

>  <REMARK>
 VINA RESULT:   -12.221      1.998      3.006
 INTER + INTRA:         -11.077
 INTER:                  -8.675
 INTRA:                  -2.401
 UNBOUND:                 4.002
  Name = 
  4 active torsions:
  status: ('A' for Active; 'I' for Inactive)
    1  A    between atoms: C_2  and  C_3
    2  A    between atoms: C_2  and  C_20
    3  A    between atoms: C_10  and  C_11
    4  A    between atoms: C_21  and  C_22
                            x       y       z     vdW  Elec       q    Type
                         _______ _______ _______ _____ _____    ______ ____

>  <TORSDO>
F 4

$$$$
=
 OpenBabel07192307433D

 51 56  0  0  0  0  0  0  0  0999 V2000
    3.3560    8.8110   17.4470 O   0  0  0  0  0  0  0  0  0  0  0  0
    2.3930    8.4070   18.0900 C   0  0  0  0  0  0  0  0  0  0  0  0
    2.4640    7.1940   18.8960 C   0  0  0  0  0  0  0  0  0  0  0  0
    1.9210    7.0050   20.1660 C   0  0  0  0  0  0  0  0  0  0  0  0
    2.2140    5.7150   20.5420 N   0  0  0  0  0  0  0  0  0  0  0  0
    2.9580    5.0780   19.5800 C   0  0  0  0  0  0  0  0  0  0  0  0
    3.4790    3.7790   19.5570 C   0  0  0  0  0  0  0  0  0  0  0  0
    4.2180    3.3970   18.4330 C   0  0  0  0  0  0  0  0  0  0  0  0
    4.4240    4.2880   17.3820 C   0  0  0  0  0  0  0  0  0  0  0  0
    5.4310    3.7370   15.8760 Br  0  0  0  0  0  0  0  0  0  0  0  0
    3.9000    5.5820   17.4180 C   0  0  0  0  0  0  0  0  0  0  0  0
    3.1490    5.9870   18.5410 C   0  0  0  0  0  0  0  0  0  0  0  0
    1.9470    5.3030   21.4260 H   0  0  0  0  0  0  0  0  0  0  0  0
    3.3200    3.0870   20.3780 H   0  0  0  0  0  0  0  0  0  0  0  0
    4.6310    2.3930   18.3900 H   0  0  0  0  0  0  0  0  0  0  0  0
    4.0680    6.2730   16.5970 H   0  0  0  0  0  0  0  0  0  0  0  0
    1.2030    7.9200   21.0510 C   0  0  0  0  0  0  0  0  0  0  0  0
    1.9040    8.8290   21.8540 C   0  0  0  0  0  0  0  0  0  0  0  0
    1.2140    9.6890   22.7130 C   0  0  0  0  0  0  0  0  0  0  0  0
   -0.1780    9.6530   22.7650 C   0  0  0  0  0  0  0  0  0  0  0  0
   -0.8830    8.7550   21.9660 C   0  0  0  0  0  0  0  0  0  0  0  0
   -0.1950    7.8900   21.1120 C   0  0  0  0  0  0  0  0  0  0  0  0
    2.9920    8.8570   21.8400 H   0  0  0  0  0  0  0  0  0  0  0  0
    1.7620   10.3790   23.3500 H   0  0  0  0  0  0  0  0  0  0  0  0
   -0.7140   10.3200   23.4360 H   0  0  0  0  0  0  0  0  0  0  0  0
   -1.9690    8.7280   22.0070 H   0  0  0  0  0  0  0  0  0  0  0  0
   -0.7600    7.1970   20.4920 H   0  0  0  0  0  0  0  0  0  0  0  0
    1.1100    9.0870   18.0480 C   0  0  0  0  0  0  0  0  0  0  0  0
   -0.0360    8.8760   17.2950 C   0  0  0  0  0  0  0  0  0  0  0  0
   -0.9830    9.8610   17.6630 C   0  0  0  0  0  0  0  0  0  0  0  0
   -2.3450   10.1060   17.2460 C   0  0  0  0  0  0  0  0  0  0  0  0
   -2.9310    9.4280   16.4090 O   0  0  0  0  0  0  0  0  0  0  0  0
   -2.9380   11.1860   17.8910 N   0  0  0  0  0  0  0  0  0  0  0  0
   -2.3430   12.0280   18.8190 N   0  0  0  0  0  0  0  0  0  0  0  0
   -1.0980   11.8100   19.1560 C   0  0  0  0  0  0  0  0  0  0  0  0
   -0.3910   10.6840   18.5940 C   0  0  0  0  0  0  0  0  0  0  0  0
    0.8600   10.1910   18.8430 N   0  0  0  0  0  0  0  0  0  0  0  0
   -0.1910    8.0920   16.5630 H   0  0  0  0  0  0  0  0  0  0  0  0
   -3.8930   11.4060   17.6330 H   0  0  0  0  0  0  0  0  0  0  0  0
    1.5350   10.5600   19.5010 H   0  0  0  0  0  0  0  0  0  0  0  0
   -0.4380   12.7290   20.1180 C   0  0  0  0  0  0  0  0  0  0  0  0
   -1.0000   12.9860   21.3770 C   0  0  0  0  0  0  0  0  0  0  0  0
   -0.3470   13.8420   22.2670 C   0  0  0  0  0  0  0  0  0  0  0  0
    0.8640   14.4220   21.9000 C   0  0  0  0  0  0  0  0  0  0  0  0
    1.4870   15.2410   22.7560 F   0  0  0  0  0  0  0  0  0  0  0  0
    1.4410   14.1570   20.6620 C   0  0  0  0  0  0  0  0  0  0  0  0
    0.7920   13.3020   19.7680 C   0  0  0  0  0  0  0  0  0  0  0  0
   -1.9220   12.5020   21.6900 H   0  0  0  0  0  0  0  0  0  0  0  0
   -0.7660   14.0500   23.2470 H   0  0  0  0  0  0  0  0  0  0  0  0
    2.3930   14.6080   20.4000 H   0  0  0  0  0  0  0  0  0  0  0  0
    1.2460   13.0850   18.8030 H   0  0  0  0  0  0  0  0  0  0  0  0
  1  2  2  0  0  0  0
  2  3  1  0  0  0  0
  3  4  2  0  0  0  0
  4  5  1  0  0  0  0
  4 17  1  0  0  0  0
  5 13  1  0  0  0  0
  6  5  1  0  0  0  0
  7  6  1  0  0  0  0
  7 14  1  0  0  0  0
  8  7  2  0  0  0  0
  9 11  2  0  0  0  0
  9  8  1  0  0  0  0
 10  9  1  0  0  0  0
 11 12  1  0  0  0  0
 12  3  1  0  0  0  0
 12  6  2  0  0  0  0
 15  8  1  0  0  0  0
 16 11  1  0  0  0  0
 17 22  2  0  0  0  0
 17 18  1  0  0  0  0
 18 19  2  0  0  0  0
 19 20  1  0  0  0  0
 19 24  1  0  0  0  0
 20 25  1  0  0  0  0
 21 26  1  0  0  0  0
 21 20  2  0  0  0  0
 22 21  1  0  0  0  0
 23 18  1  0  0  0  0
 27 22  1  0  0  0  0
 28  2  1  0  0  0  0
 28 37  1  0  0  0  0
 29 30  1  0  0  0  0
 29 28  2  0  0  0  0
 30 36  2  0  0  0  0
 31 30  1  0  0  0  0
 31 33  1  0  0  0  0
 32 31  2  0  0  0  0
 33 34  1  0  0  0  0
 34 35  2  0  0  0  0
 35 41  1  0  0  0  0
 36 37  1  0  0  0  0
 36 35  1  0  0  0  0
 37 40  1  0  0  0  0
 38 29  1  0  0  0  0
 39 33  1  0  0  0  0
 41 42  1  0  0  0  0
 42 48  1  0  0  0  0
 42 43  2  0  0  0  0
 43 49  1  0  0  0  0
 44 43  1  0  0  0  0
 44 45  1  0  0  0  0
 46 44  2  0  0  0  0
 47 41  2  0  0  0  0
 47 46  1  0  0  0  0
 50 46  1  0  0  0  0
 51 47  1  0  0  0  0
M  END
>  <MODEL>
4

>  <REMARK>
 VINA RESULT:   -12.039      0.908      1.476
 INTER + INTRA:         -10.853
 INTER:                  -9.120
 INTRA:                  -1.733
 UNBOUND:                 4.002
  Name = 
  4 active torsions:
  status: ('A' for Active; 'I' for Inactive)
    1  A    between atoms: C_2  and  C_3
    2  A    between atoms: C_2  and  C_20
    3  A    between atoms: C_10  and  C_11
    4  A    between atoms: C_21  and  C_22
                            x       y       z     vdW  Elec       q    Type
                         _______ _______ _______ _____ _____    ______ ____

>  <TORSDO>
F 4

$$$$
=
 OpenBabel07192307433D

 51 56  0  0  0  0  0  0  0  0999 V2000
    0.9090    9.6170   22.9870 O   0  0  0  0  0  0  0  0  0  0  0  0
    0.4760   10.0830   21.9380 C   0  0  0  0  0  0  0  0  0  0  0  0
    1.0900    9.7770   20.6510 C   0  0  0  0  0  0  0  0  0  0  0  0
    1.4110   10.6860   19.6450 C   0  0  0  0  0  0  0  0  0  0  0  0
    1.9810    9.9670   18.6190 N   0  0  0  0  0  0  0  0  0  0  0  0
    2.0020    8.6250   18.9100 C   0  0  0  0  0  0  0  0  0  0  0  0
    2.4720    7.5460   18.1530 C   0  0  0  0  0  0  0  0  0  0  0  0
    2.3560    6.2680   18.7050 C   0  0  0  0  0  0  0  0  0  0  0  0
    1.7880    6.0860   19.9640 C   0  0  0  0  0  0  0  0  0  0  0  0
    1.6460    4.3400   20.6810 Br  0  0  0  0  0  0  0  0  0  0  0  0
    1.3210    7.1710   20.7100 C   0  0  0  0  0  0  0  0  0  0  0  0
    1.4310    8.4700   20.1720 C   0  0  0  0  0  0  0  0  0  0  0  0
    2.3060   10.3700   17.7510 H   0  0  0  0  0  0  0  0  0  0  0  0
    2.9120    7.6890   17.1700 H   0  0  0  0  0  0  0  0  0  0  0  0
    2.7160    5.4130   18.1380 H   0  0  0  0  0  0  0  0  0  0  0  0
    0.8760    7.0230   21.6890 H   0  0  0  0  0  0  0  0  0  0  0  0
    1.2010   12.1280   19.5480 C   0  0  0  0  0  0  0  0  0  0  0  0
    1.8720   13.0040   20.4100 C   0  0  0  0  0  0  0  0  0  0  0  0
    1.6540   14.3830   20.3250 C   0  0  0  0  0  0  0  0  0  0  0  0
    0.7730   14.8920   19.3720 C   0  0  0  0  0  0  0  0  0  0  0  0
    0.1050   14.0270   18.5080 C   0  0  0  0  0  0  0  0  0  0  0  0
    0.3170   12.6500   18.5950 C   0  0  0  0  0  0  0  0  0  0  0  0
    2.5480   12.6220   21.1730 H   0  0  0  0  0  0  0  0  0  0  0  0
    2.1610   15.0580   21.0100 H   0  0  0  0  0  0  0  0  0  0  0  0
    0.6020   15.9640   19.3090 H   0  0  0  0  0  0  0  0  0  0  0  0
   -0.5810   14.4250   17.7650 H   0  0  0  0  0  0  0  0  0  0  0  0
   -0.2090   11.9880   17.9100 H   0  0  0  0  0  0  0  0  0  0  0  0
   -0.6460   11.0060   21.9210 C   0  0  0  0  0  0  0  0  0  0  0  0
   -1.1780   11.8490   22.8860 C   0  0  0  0  0  0  0  0  0  0  0  0
   -2.2900   12.5120   22.3170 C   0  0  0  0  0  0  0  0  0  0  0  0
   -3.1940   13.5160   22.8300 C   0  0  0  0  0  0  0  0  0  0  0  0
   -3.1240   13.9740   23.9660 O   0  0  0  0  0  0  0  0  0  0  0  0
   -4.1520   13.9250   21.9100 N   0  0  0  0  0  0  0  0  0  0  0  0
   -4.3290   13.4380   20.6220 N   0  0  0  0  0  0  0  0  0  0  0  0
   -3.5230   12.5040   20.1890 C   0  0  0  0  0  0  0  0  0  0  0  0
   -2.4510   12.0350   21.0350 C   0  0  0  0  0  0  0  0  0  0  0  0
   -1.4360   11.1510   20.7950 N   0  0  0  0  0  0  0  0  0  0  0  0
   -0.8080   11.9880   23.8950 H   0  0  0  0  0  0  0  0  0  0  0  0
   -4.8160   14.6260   22.2190 H   0  0  0  0  0  0  0  0  0  0  0  0
   -1.2620   10.6500   19.9330 H   0  0  0  0  0  0  0  0  0  0  0  0
   -3.7270   11.9460   18.8290 C   0  0  0  0  0  0  0  0  0  0  0  0
   -4.9890   11.9730   18.2170 C   0  0  0  0  0  0  0  0  0  0  0  0
   -5.1470   11.4550   16.9280 C   0  0  0  0  0  0  0  0  0  0  0  0
   -4.0460   10.9310   16.2580 C   0  0  0  0  0  0  0  0  0  0  0  0
   -4.2010   10.4380   15.0240 F   0  0  0  0  0  0  0  0  0  0  0  0
   -2.7850   10.9210   16.8470 C   0  0  0  0  0  0  0  0  0  0  0  0
   -2.6220   11.4350   18.1350 C   0  0  0  0  0  0  0  0  0  0  0  0
   -5.8450   12.4220   18.7150 H   0  0  0  0  0  0  0  0  0  0  0  0
   -6.1160   11.4700   16.4390 H   0  0  0  0  0  0  0  0  0  0  0  0
   -1.9360   10.5200   16.3020 H   0  0  0  0  0  0  0  0  0  0  0  0
   -1.6350   11.4370   18.5950 H   0  0  0  0  0  0  0  0  0  0  0  0
  2  1  2  0  0  0  0
  3  2  1  0  0  0  0
  4  3  2  0  0  0  0
  5  6  1  0  0  0  0
  5  4  1  0  0  0  0
  6 12  1  0  0  0  0
  7  8  1  0  0  0  0
  7  6  2  0  0  0  0
  8  9  2  0  0  0  0
  9 10  1  0  0  0  0
  9 11  1  0  0  0  0
 11 16  1  0  0  0  0
 12  3  1  0  0  0  0
 12 11  2  0  0  0  0
 13  5  1  0  0  0  0
 14  7  1  0  0  0  0
 15  8  1  0  0  0  0
 17  4  1  0  0  0  0
 17 18  1  0  0  0  0
 18 23  1  0  0  0  0
 19 18  2  0  0  0  0
 19 24  1  0  0  0  0
 20 19  1  0  0  0  0
 21 22  1  0  0  0  0
 21 20  2  0  0  0  0
 22 17  2  0  0  0  0
 25 20  1  0  0  0  0
 26 21  1  0  0  0  0
 27 22  1  0  0  0  0
 28  2  1  0  0  0  0
 28 29  2  0  0  0  0
 29 38  1  0  0  0  0
 30 31  1  0  0  0  0
 30 29  1  0  0  0  0
 31 32  2  0  0  0  0
 33 39  1  0  0  0  0
 33 31  1  0  0  0  0
 34 33  1  0  0  0  0
 35 34  2  0  0  0  0
 35 36  1  0  0  0  0
 36 30  2  0  0  0  0
 37 36  1  0  0  0  0
 37 28  1  0  0  0  0
 40 37  1  0  0  0  0
 41 35  1  0  0  0  0
 42 48  1  0  0  0  0
 42 41  1  0  0  0  0
 43 42  2  0  0  0  0
 44 46  2  0  0  0  0
 44 43  1  0  0  0  0
 45 44  1  0  0  0  0
 46 47  1  0  0  0  0
 47 51  1  0  0  0  0
 47 41  2  0  0  0  0
 49 43  1  0  0  0  0
 50 46  1  0  0  0  0
M  END
>  <MODEL>
5

>  <REMARK>
 VINA RESULT:   -11.553      3.302      5.301
 INTER + INTRA:         -10.252
 INTER:                  -9.685
 INTRA:                  -0.567
 UNBOUND:                 4.002
  Name = 
  4 active torsions:
  status: ('A' for Active; 'I' for Inactive)
    1  A    between atoms: C_2  and  C_3
    2  A    between atoms: C_2  and  C_20
    3  A    between atoms: C_10  and  C_11
    4  A    between atoms: C_21  and  C_22
                            x       y       z     vdW  Elec       q    Type
                         _______ _______ _______ _____ _____    ______ ____

>  <TORSDO>
F 4

$$$$
=
 OpenBabel07192307433D

 51 56  0  0  0  0  0  0  0  0999 V2000
    1.8050   10.4180   17.8830 O   0  0  0  0  0  0  0  0  0  0  0  0
    0.8400   10.0390   18.5370 C   0  0  0  0  0  0  0  0  0  0  0  0
    1.0000    9.3130   19.7920 C   0  0  0  0  0  0  0  0  0  0  0  0
    1.6970    8.1220   19.9820 C   0  0  0  0  0  0  0  0  0  0  0  0
    1.6010    7.8060   21.3170 N   0  0  0  0  0  0  0  0  0  0  0  0
    0.8350    8.7290   21.9880 C   0  0  0  0  0  0  0  0  0  0  0  0
    0.4720    8.7860   23.3380 C   0  0  0  0  0  0  0  0  0  0  0  0
   -0.3360    9.8520   23.7460 C   0  0  0  0  0  0  0  0  0  0  0  0
   -0.7590   10.8140   22.8310 C   0  0  0  0  0  0  0  0  0  0  0  0
   -1.8520   12.2440   23.4190 Br  0  0  0  0  0  0  0  0  0  0  0  0
   -0.3900   10.7440   21.4860 C   0  0  0  0  0  0  0  0  0  0  0  0
    0.4270    9.6790   21.0530 C   0  0  0  0  0  0  0  0  0  0  0  0
    2.0090    6.9840   21.7410 H   0  0  0  0  0  0  0  0  0  0  0  0
    0.7990    8.0340   24.0490 H   0  0  0  0  0  0  0  0  0  0  0  0
   -0.6310    9.9210   24.7900 H   0  0  0  0  0  0  0  0  0  0  0  0
   -0.7260   11.4950   20.7760 H   0  0  0  0  0  0  0  0  0  0  0  0
    2.3950    7.2540   19.0360 C   0  0  0  0  0  0  0  0  0  0  0  0
    2.1510    5.8750   19.0230 C   0  0  0  0  0  0  0  0  0  0  0  0
    2.8350    5.0460   18.1280 C   0  0  0  0  0  0  0  0  0  0  0  0
    3.7550    5.5920   17.2360 C   0  0  0  0  0  0  0  0  0  0  0  0
    3.9990    6.9640   17.2390 C   0  0  0  0  0  0  0  0  0  0  0  0
    3.3220    7.7930   18.1360 C   0  0  0  0  0  0  0  0  0  0  0  0
    1.4500    5.4290   19.7260 H   0  0  0  0  0  0  0  0  0  0  0  0
    2.6580    3.9730   18.1360 H   0  0  0  0  0  0  0  0  0  0  0  0
    4.2890    4.9460   16.5420 H   0  0  0  0  0  0  0  0  0  0  0  0
    4.7170    7.3890   16.5420 H   0  0  0  0  0  0  0  0  0  0  0  0
    3.5210    8.8630   18.1230 H   0  0  0  0  0  0  0  0  0  0  0  0
   -0.5220   10.2480   18.0760 C   0  0  0  0  0  0  0  0  0  0  0  0
   -1.1920    9.8520   16.9280 C   0  0  0  0  0  0  0  0  0  0  0  0
   -2.5120   10.3560   17.0010 C   0  0  0  0  0  0  0  0  0  0  0  0
   -3.6530   10.2290   16.1230 C   0  0  0  0  0  0  0  0  0  0  0  0
   -3.6300    9.6100   15.0640 O   0  0  0  0  0  0  0  0  0  0  0  0
   -4.7920   10.8710   16.5960 N   0  0  0  0  0  0  0  0  0  0  0  0
   -4.9020   11.6220   17.7580 N   0  0  0  0  0  0  0  0  0  0  0  0
   -3.8470   11.7540   18.5210 C   0  0  0  0  0  0  0  0  0  0  0  0
   -2.6180   11.0870   18.1630 C   0  0  0  0  0  0  0  0  0  0  0  0
   -1.4220   10.9900   18.8200 N   0  0  0  0  0  0  0  0  0  0  0  0
   -0.7880    9.2550   16.1190 H   0  0  0  0  0  0  0  0  0  0  0  0
   -5.6230   10.8180   16.0170 H   0  0  0  0  0  0  0  0  0  0  0  0
   -1.1910   11.3970   19.7180 H   0  0  0  0  0  0  0  0  0  0  0  0
   -3.9410   12.5880   19.7450 C   0  0  0  0  0  0  0  0  0  0  0  0
   -2.9960   13.5900   20.0130 C   0  0  0  0  0  0  0  0  0  0  0  0
   -3.1200   14.3700   21.1660 C   0  0  0  0  0  0  0  0  0  0  0  0
   -4.1880   14.1540   22.0300 C   0  0  0  0  0  0  0  0  0  0  0  0
   -4.3040   14.9040   23.1330 F   0  0  0  0  0  0  0  0  0  0  0  0
   -5.1440   13.1780   21.7620 C   0  0  0  0  0  0  0  0  0  0  0  0
   -5.0240   12.3940   20.6120 C   0  0  0  0  0  0  0  0  0  0  0  0
   -2.1840   13.7960   19.3200 H   0  0  0  0  0  0  0  0  0  0  0  0
   -2.3990   15.1510   21.3870 H   0  0  0  0  0  0  0  0  0  0  0  0
   -5.9770   13.0350   22.4430 H   0  0  0  0  0  0  0  0  0  0  0  0
   -5.7750   11.6370   20.3950 H   0  0  0  0  0  0  0  0  0  0  0  0
  1  2  2  0  0  0  0
  2  3  1  0  0  0  0
  3  4  2  0  0  0  0
  3 12  1  0  0  0  0
  4  5  1  0  0  0  0
  5 13  1  0  0  0  0
  5  6  1  0  0  0  0
  6  7  1  0  0  0  0
  7  8  2  0  0  0  0
  7 14  1  0  0  0  0
  8 15  1  0  0  0  0
  9 10  1  0  0  0  0
  9  8  1  0  0  0  0
 11  9  2  0  0  0  0
 12 11  1  0  0  0  0
 12  6  2  0  0  0  0
 16 11  1  0  0  0  0
 17  4  1  0  0  0  0
 18 17  1  0  0  0  0
 18 23  1  0  0  0  0
 19 24  1  0  0  0  0
 19 18  2  0  0  0  0
 20 21  2  0  0  0  0
 20 19  1  0  0  0  0
 21 22  1  0  0  0  0
 22 17  2  0  0  0  0
 25 20  1  0  0  0  0
 26 21  1  0  0  0  0
 27 22  1  0  0  0  0
 28  2  1  0  0  0  0
 28 37  1  0  0  0  0
 29 30  1  0  0  0  0
 29 28  2  0  0  0  0
 30 36  2  0  0  0  0
 31 33  1  0  0  0  0
 31 30  1  0  0  0  0
 32 31  2  0  0  0  0
 33 34  1  0  0  0  0
 34 35  2  0  0  0  0
 35 41  1  0  0  0  0
 36 35  1  0  0  0  0
 36 37  1  0  0  0  0
 37 40  1  0  0  0  0
 38 29  1  0  0  0  0
 39 33  1  0  0  0  0
 41 42  2  0  0  0  0
 41 47  1  0  0  0  0
 42 43  1  0  0  0  0
 43 49  1  0  0  0  0
 43 44  2  0  0  0  0
 44 45  1  0  0  0  0
 46 44  1  0  0  0  0
 46 50  1  0  0  0  0
 47 46  2  0  0  0  0
 48 42  1  0  0  0  0
 51 47  1  0  0  0  0
M  END
>  <MODEL>
6

>  <REMARK>
 VINA RESULT:   -11.172      2.827      4.836
 INTER + INTRA:          -9.782
 INTER:                  -9.681
 INTRA:                  -0.101
 UNBOUND:                 4.002
  Name = 
  4 active torsions:
  status: ('A' for Active; 'I' for Inactive)
    1  A    between atoms: C_2  and  C_3
    2  A    between atoms: C_2  and  C_20
    3  A    between atoms: C_10  and  C_11
    4  A    between atoms: C_21  and  C_22
                            x       y       z     vdW  Elec       q    Type
                         _______ _______ _______ _____ _____    ______ ____

>  <TORSDO>
F 4

$$$$
=
 OpenBabel07192307433D

 51 56  0  0  0  0  0  0  0  0999 V2000
    1.5980    8.3420   17.1730 O   0  0  0  0  0  0  0  0  0  0  0  0
    2.2590    7.7240   18.0010 C   0  0  0  0  0  0  0  0  0  0  0  0
    1.8700    7.6650   19.4050 C   0  0  0  0  0  0  0  0  0  0  0  0
    1.8630    6.5360   20.2210 C   0  0  0  0  0  0  0  0  0  0  0  0
    1.4410    6.9400   21.4660 N   0  0  0  0  0  0  0  0  0  0  0  0
    1.1380    8.2800   21.4730 C   0  0  0  0  0  0  0  0  0  0  0  0
    0.6650    9.0910   22.5110 C   0  0  0  0  0  0  0  0  0  0  0  0
    0.4320   10.4390   22.2240 C   0  0  0  0  0  0  0  0  0  0  0  0
    0.6630   10.9440   20.9470 C   0  0  0  0  0  0  0  0  0  0  0  0
    0.3360   12.7750   20.5940 Br  0  0  0  0  0  0  0  0  0  0  0  0
    1.1340   10.1230   19.9190 C   0  0  0  0  0  0  0  0  0  0  0  0
    1.3790    8.7610   20.1870 C   0  0  0  0  0  0  0  0  0  0  0  0
    1.3330    6.3240   22.2610 H   0  0  0  0  0  0  0  0  0  0  0  0
    0.4820    8.6950   23.5050 H   0  0  0  0  0  0  0  0  0  0  0  0
    0.0670   11.0900   23.0140 H   0  0  0  0  0  0  0  0  0  0  0  0
    1.3090   10.5220   18.9240 H   0  0  0  0  0  0  0  0  0  0  0  0
    2.1730    5.1380   19.9310 C   0  0  0  0  0  0  0  0  0  0  0  0
    3.4210    4.6010   20.2720 C   0  0  0  0  0  0  0  0  0  0  0  0
    3.7200    3.2670   19.9760 C   0  0  0  0  0  0  0  0  0  0  0  0
    2.7700    2.4630   19.3490 C   0  0  0  0  0  0  0  0  0  0  0  0
    1.5250    2.9890   19.0110 C   0  0  0  0  0  0  0  0  0  0  0  0
    1.2270    4.3220   19.3000 C   0  0  0  0  0  0  0  0  0  0  0  0
    4.1820    5.2200   20.7440 H   0  0  0  0  0  0  0  0  0  0  0  0
    4.6970    2.8600   20.2240 H   0  0  0  0  0  0  0  0  0  0  0  0
    3.0050    1.4260   19.1170 H   0  0  0  0  0  0  0  0  0  0  0  0
    0.7850    2.3600   18.5230 H   0  0  0  0  0  0  0  0  0  0  0  0
    0.2480    4.7160   19.0330 H   0  0  0  0  0  0  0  0  0  0  0  0
    3.4960    7.0540   17.6390 C   0  0  0  0  0  0  0  0  0  0  0  0
    3.7660    5.7740   17.1760 C   0  0  0  0  0  0  0  0  0  0  0  0
    5.1650    5.6620   17.0030 C   0  0  0  0  0  0  0  0  0  0  0  0
    6.0040    4.5900   16.5160 C   0  0  0  0  0  0  0  0  0  0  0  0
    5.5710    3.4980   16.1590 O   0  0  0  0  0  0  0  0  0  0  0  0
    7.3550    4.9130   16.4820 N   0  0  0  0  0  0  0  0  0  0  0  0
    7.9370    6.1020   16.8990 N   0  0  0  0  0  0  0  0  0  0  0  0
    7.1640    7.0470   17.3700 C   0  0  0  0  0  0  0  0  0  0  0  0
    5.7340    6.8500   17.4050 C   0  0  0  0  0  0  0  0  0  0  0  0
    4.7170    7.6940   17.7570 N   0  0  0  0  0  0  0  0  0  0  0  0
    3.0390    4.9970   16.9700 H   0  0  0  0  0  0  0  0  0  0  0  0
    7.9910    4.1950   16.1520 H   0  0  0  0  0  0  0  0  0  0  0  0
    4.8080    8.6520   18.0700 H   0  0  0  0  0  0  0  0  0  0  0  0
    7.7770    8.3070   17.8560 C   0  0  0  0  0  0  0  0  0  0  0  0
    8.6990    8.3040   18.9140 C   0  0  0  0  0  0  0  0  0  0  0  0
    9.2720    9.5050   19.3390 C   0  0  0  0  0  0  0  0  0  0  0  0
    8.9340   10.6930   18.6990 C   0  0  0  0  0  0  0  0  0  0  0  0
    9.4860   11.8410   19.1080 F   0  0  0  0  0  0  0  0  0  0  0  0
    8.0380   10.7050   17.6340 C   0  0  0  0  0  0  0  0  0  0  0  0
    7.4600    9.5070   17.2060 C   0  0  0  0  0  0  0  0  0  0  0  0
    9.0030    7.3750   19.3900 H   0  0  0  0  0  0  0  0  0  0  0  0
    9.9890    9.5200   20.1550 H   0  0  0  0  0  0  0  0  0  0  0  0
    7.7970   11.6400   17.1390 H   0  0  0  0  0  0  0  0  0  0  0  0
    6.7670    9.5120   16.3670 H   0  0  0  0  0  0  0  0  0  0  0  0
  1  2  2  0  0  0  0
  2  3  1  0  0  0  0
  3 12  1  0  0  0  0
  3  4  2  0  0  0  0
  4  5  1  0  0  0  0
  5  6  1  0  0  0  0
  5 13  1  0  0  0  0
  6  7  1  0  0  0  0
  7 14  1  0  0  0  0
  8  7  2  0  0  0  0
  8 15  1  0  0  0  0
  9  8  1  0  0  0  0
 10  9  1  0  0  0  0
 11 12  1  0  0  0  0
 11  9  2  0  0  0  0
 12  6  2  0  0  0  0
 16 11  1  0  0  0  0
 17  4  1  0  0  0  0
 17 18  1  0  0  0  0
 18 23  1  0  0  0  0
 19 24  1  0  0  0  0
 19 18  2  0  0  0  0
 20 19  1  0  0  0  0
 21 22  1  0  0  0  0
 21 20  2  0  0  0  0
 22 17  2  0  0  0  0
 25 20  1  0  0  0  0
 26 21  1  0  0  0  0
 27 22  1  0  0  0  0
 28 37  1  0  0  0  0
 28  2  1  0  0  0  0
 29 28  2  0  0  0  0
 30 29  1  0  0  0  0
 30 36  2  0  0  0  0
 31 30  1  0  0  0  0
 32 31  2  0  0  0  0
 33 31  1  0  0  0  0
 33 34  1  0  0  0  0
 34 35  2  0  0  0  0
 35 36  1  0  0  0  0
 35 41  1  0  0  0  0
 36 37  1  0  0  0  0
 37 40  1  0  0  0  0
 38 29  1  0  0  0  0
 39 33  1  0  0  0  0
 41 42  1  0  0  0  0
 42 43  2  0  0  0  0
 42 48  1  0  0  0  0
 43 49  1  0  0  0  0
 44 45  1  0  0  0  0
 44 43  1  0  0  0  0
 46 44  2  0  0  0  0
 47 46  1  0  0  0  0
 47 41  2  0  0  0  0
 50 46  1  0  0  0  0
 51 47  1  0  0  0  0
M  END
>  <MODEL>
7

>  <REMARK>
 VINA RESULT:   -11.103      4.281      8.120
 INTER + INTRA:          -9.698
 INTER:                  -8.467
 INTRA:                  -1.231
 UNBOUND:                 4.002
  Name = 
  4 active torsions:
  status: ('A' for Active; 'I' for Inactive)
    1  A    between atoms: C_2  and  C_3
    2  A    between atoms: C_2  and  C_20
    3  A    between atoms: C_10  and  C_11
    4  A    between atoms: C_21  and  C_22
                            x       y       z     vdW  Elec       q    Type
                         _______ _______ _______ _____ _____    ______ ____

>  <TORSDO>
F 4

$$$$
=
 OpenBabel07192307433D

 51 56  0  0  0  0  0  0  0  0999 V2000
    2.7270    7.2620   16.6650 O   0  0  0  0  0  0  0  0  0  0  0  0
    3.0080    7.1900   17.8560 C   0  0  0  0  0  0  0  0  0  0  0  0
    4.0940    6.3450   18.3380 C   0  0  0  0  0  0  0  0  0  0  0  0
    3.9750    5.0810   18.9140 C   0  0  0  0  0  0  0  0  0  0  0  0
    5.2480    4.6490   19.2060 N   0  0  0  0  0  0  0  0  0  0  0  0
    6.1800    5.6020   18.8770 C   0  0  0  0  0  0  0  0  0  0  0  0
    7.5720    5.5860   19.0150 C   0  0  0  0  0  0  0  0  0  0  0  0
    8.2780    6.7180   18.5970 C   0  0  0  0  0  0  0  0  0  0  0  0
    7.6080    7.8170   18.0660 C   0  0  0  0  0  0  0  0  0  0  0  0
    8.5950    9.3340   17.5090 Br  0  0  0  0  0  0  0  0  0  0  0  0
    6.2170    7.8210   17.9330 C   0  0  0  0  0  0  0  0  0  0  0  0
    5.4860    6.6880   18.3470 C   0  0  0  0  0  0  0  0  0  0  0  0
    5.4640    3.7610   19.6400 H   0  0  0  0  0  0  0  0  0  0  0  0
    8.0940    4.7300   19.4330 H   0  0  0  0  0  0  0  0  0  0  0  0
    9.3610    6.7290   18.6920 H   0  0  0  0  0  0  0  0  0  0  0  0
    5.6990    8.6830   17.5220 H   0  0  0  0  0  0  0  0  0  0  0  0
    2.7980    4.2810   19.2420 C   0  0  0  0  0  0  0  0  0  0  0  0
    2.3680    4.1580   20.5690 C   0  0  0  0  0  0  0  0  0  0  0  0
    1.2510    3.3760   20.8800 C   0  0  0  0  0  0  0  0  0  0  0  0
    0.5530    2.7230   19.8650 C   0  0  0  0  0  0  0  0  0  0  0  0
    0.9720    2.8450   18.5420 C   0  0  0  0  0  0  0  0  0  0  0  0
    2.0900    3.6200   18.2300 C   0  0  0  0  0  0  0  0  0  0  0  0
    2.9130    4.6450   21.3760 H   0  0  0  0  0  0  0  0  0  0  0  0
    0.9330    3.2670   21.9140 H   0  0  0  0  0  0  0  0  0  0  0  0
   -0.3130    2.1130   20.1090 H   0  0  0  0  0  0  0  0  0  0  0  0
    0.4260    2.3350   17.7510 H   0  0  0  0  0  0  0  0  0  0  0  0
    2.4020    3.7070   17.1910 H   0  0  0  0  0  0  0  0  0  0  0  0
    2.2440    7.9050   18.8630 C   0  0  0  0  0  0  0  0  0  0  0  0
    2.3620    7.9890   20.2430 C   0  0  0  0  0  0  0  0  0  0  0  0
    1.3260    8.8260   20.7170 C   0  0  0  0  0  0  0  0  0  0  0  0
    0.9820    9.2970   22.0400 C   0  0  0  0  0  0  0  0  0  0  0  0
    1.6020    8.9890   23.0530 O   0  0  0  0  0  0  0  0  0  0  0  0
   -0.1210   10.1440   22.0590 N   0  0  0  0  0  0  0  0  0  0  0  0
   -0.9020   10.5160   20.9740 N   0  0  0  0  0  0  0  0  0  0  0  0
   -0.5950   10.0500   19.7910 C   0  0  0  0  0  0  0  0  0  0  0  0
    0.5630    9.2030   19.6350 C   0  0  0  0  0  0  0  0  0  0  0  0
    1.1430    8.6680   18.5170 N   0  0  0  0  0  0  0  0  0  0  0  0
    3.1180    7.5100   20.8550 H   0  0  0  0  0  0  0  0  0  0  0  0
   -0.4100   10.5020   22.9630 H   0  0  0  0  0  0  0  0  0  0  0  0
    0.8340    8.7860   17.5610 H   0  0  0  0  0  0  0  0  0  0  0  0
   -1.4470   10.4080   18.6300 C   0  0  0  0  0  0  0  0  0  0  0  0
   -1.3880    9.6770   17.4340 C   0  0  0  0  0  0  0  0  0  0  0  0
   -2.2150   10.0280   16.3640 C   0  0  0  0  0  0  0  0  0  0  0  0
   -3.1000   11.0920   16.4990 C   0  0  0  0  0  0  0  0  0  0  0  0
   -3.8910   11.4250   15.4720 F   0  0  0  0  0  0  0  0  0  0  0  0
   -3.1830   11.8110   17.6880 C   0  0  0  0  0  0  0  0  0  0  0  0
   -2.3580   11.4650   18.7610 C   0  0  0  0  0  0  0  0  0  0  0  0
   -0.7320    8.8150   17.3360 H   0  0  0  0  0  0  0  0  0  0  0  0
   -2.1830    9.4700   15.4330 H   0  0  0  0  0  0  0  0  0  0  0  0
   -3.8900   12.6290   17.7780 H   0  0  0  0  0  0  0  0  0  0  0  0
   -2.4270   12.0190   19.6950 H   0  0  0  0  0  0  0  0  0  0  0  0
  1  2  2  0  0  0  0
  2  3  1  0  0  0  0
  2 28  1  0  0  0  0
  3 12  1  0  0  0  0
  3  4  2  0  0  0  0
  4  5  1  0  0  0  0
  4 17  1  0  0  0  0
  5 13  1  0  0  0  0
  6  7  1  0  0  0  0
  6  5  1  0  0  0  0
  7 14  1  0  0  0  0
  8 15  1  0  0  0  0
  8  7  2  0  0  0  0
  9  8  1  0  0  0  0
 10  9  1  0  0  0  0
 11  9  2  0  0  0  0
 11 12  1  0  0  0  0
 12  6  2  0  0  0  0
 16 11  1  0  0  0  0
 17 18  1  0  0  0  0
 18 19  2  0  0  0  0
 18 23  1  0  0  0  0
 19 24  1  0  0  0  0
 20 25  1  0  0  0  0
 20 19  1  0  0  0  0
 21 20  2  0  0  0  0
 22 21  1  0  0  0  0
 22 17  2  0  0  0  0
 26 21  1  0  0  0  0
 27 22  1  0  0  0  0
 28 29  2  0  0  0  0
 29 30  1  0  0  0  0
 29 38  1  0  0  0  0
 30 31  1  0  0  0  0
 31 33  1  0  0  0  0
 31 32  2  0  0  0  0
 33 39  1  0  0  0  0
 34 33  1  0  0  0  0
 35 34  2  0  0  0  0
 36 35  1  0  0  0  0
 36 30  2  0  0  0  0
 37 28  1  0  0  0  0
 37 36  1  0  0  0  0
 40 37  1  0  0  0  0
 41 47  1  0  0  0  0
 41 35  1  0  0  0  0
 42 41  2  0  0  0  0
 43 44  2  0  0  0  0
 43 42  1  0  0  0  0
 44 46  1  0  0  0  0
 45 44  1  0  0  0  0
 46 50  1  0  0  0  0
 46 47  2  0  0  0  0
 47 51  1  0  0  0  0
 48 42  1  0  0  0  0
 49 43  1  0  0  0  0
M  END
>  <MODEL>
8

>  <REMARK>
 VINA RESULT:   -11.046      3.124      4.994
 INTER + INTRA:          -9.628
 INTER:                  -8.336
 INTRA:                  -1.292
 UNBOUND:                 4.002
  Name = 
  4 active torsions:
  status: ('A' for Active; 'I' for Inactive)
    1  A    between atoms: C_2  and  C_3
    2  A    between atoms: C_2  and  C_20
    3  A    between atoms: C_10  and  C_11
    4  A    between atoms: C_21  and  C_22
                            x       y       z     vdW  Elec       q    Type
                         _______ _______ _______ _____ _____    ______ ____

>  <TORSDO>
F 4

$$$$
=
 OpenBabel07192307433D

 51 56  0  0  0  0  0  0  0  0999 V2000
   -0.1520    9.6090   21.0130 O   0  0  0  0  0  0  0  0  0  0  0  0
    0.4830    9.9510   20.0210 C   0  0  0  0  0  0  0  0  0  0  0  0
    0.3410   11.2820   19.4410 C   0  0  0  0  0  0  0  0  0  0  0  0
   -0.6240   11.6910   18.5230 C   0  0  0  0  0  0  0  0  0  0  0  0
   -0.3920   13.0220   18.2600 N   0  0  0  0  0  0  0  0  0  0  0  0
    0.7090   13.4750   18.9450 C   0  0  0  0  0  0  0  0  0  0  0  0
    1.3020   14.7420   18.9590 C   0  0  0  0  0  0  0  0  0  0  0  0
    2.4390   14.9160   19.7540 C   0  0  0  0  0  0  0  0  0  0  0  0
    2.9550   13.8580   20.4980 C   0  0  0  0  0  0  0  0  0  0  0  0
    4.4960   14.1290   21.5640 Br  0  0  0  0  0  0  0  0  0  0  0  0
    2.3540   12.5970   20.4740 C   0  0  0  0  0  0  0  0  0  0  0  0
    1.2040   12.4000   19.6810 C   0  0  0  0  0  0  0  0  0  0  0  0
   -0.9390   13.5820   17.6200 H   0  0  0  0  0  0  0  0  0  0  0  0
    0.9010   15.5660   18.3760 H   0  0  0  0  0  0  0  0  0  0  0  0
    2.9170   15.8920   19.7840 H   0  0  0  0  0  0  0  0  0  0  0  0
    2.7630   11.7740   21.0540 H   0  0  0  0  0  0  0  0  0  0  0  0
   -1.6940   10.9520   17.8570 C   0  0  0  0  0  0  0  0  0  0  0  0
   -1.3920    9.9450   16.9300 C   0  0  0  0  0  0  0  0  0  0  0  0
   -2.4190    9.2530   16.2820 C   0  0  0  0  0  0  0  0  0  0  0  0
   -3.7500    9.5550   16.5640 C   0  0  0  0  0  0  0  0  0  0  0  0
   -4.0580   10.5520   17.4880 C   0  0  0  0  0  0  0  0  0  0  0  0
   -3.0340   11.2490   18.1310 C   0  0  0  0  0  0  0  0  0  0  0  0
   -0.3590    9.7100   16.6840 H   0  0  0  0  0  0  0  0  0  0  0  0
   -2.1820    8.4860   15.5490 H   0  0  0  0  0  0  0  0  0  0  0  0
   -4.5480    9.0180   16.0570 H   0  0  0  0  0  0  0  0  0  0  0  0
   -5.0970   10.7870   17.7070 H   0  0  0  0  0  0  0  0  0  0  0  0
   -3.2910   12.0220   18.8530 H   0  0  0  0  0  0  0  0  0  0  0  0
    1.3790    9.0350   19.3370 C   0  0  0  0  0  0  0  0  0  0  0  0
    2.2170    9.1890   18.2410 C   0  0  0  0  0  0  0  0  0  0  0  0
    2.8480    7.9470   18.0010 C   0  0  0  0  0  0  0  0  0  0  0  0
    3.8360    7.5270   17.0320 C   0  0  0  0  0  0  0  0  0  0  0  0
    4.3040    8.2700   16.1760 O   0  0  0  0  0  0  0  0  0  0  0  0
    4.2130    6.1960   17.1650 N   0  0  0  0  0  0  0  0  0  0  0  0
    3.7120    5.2760   18.0750 N   0  0  0  0  0  0  0  0  0  0  0  0
    2.7940    5.6670   18.9200 C   0  0  0  0  0  0  0  0  0  0  0  0
    2.3570    7.0430   18.9160 C   0  0  0  0  0  0  0  0  0  0  0  0
    1.4950    7.7160   19.7380 N   0  0  0  0  0  0  0  0  0  0  0  0
    2.3730   10.0990   17.6730 H   0  0  0  0  0  0  0  0  0  0  0  0
    4.9010    5.8460   16.5070 H   0  0  0  0  0  0  0  0  0  0  0  0
    0.9920    7.3350   20.5280 H   0  0  0  0  0  0  0  0  0  0  0  0
    2.2200    4.6820   19.8710 C   0  0  0  0  0  0  0  0  0  0  0  0
    1.1790    3.8240   19.4870 C   0  0  0  0  0  0  0  0  0  0  0  0
    0.6720    2.8960   20.4000 C   0  0  0  0  0  0  0  0  0  0  0  0
    1.2140    2.8220   21.6780 C   0  0  0  0  0  0  0  0  0  0  0  0
    0.7260    1.9310   22.5490 F   0  0  0  0  0  0  0  0  0  0  0  0
    2.2620    3.6530   22.0630 C   0  0  0  0  0  0  0  0  0  0  0  0
    2.7730    4.5830   21.1550 C   0  0  0  0  0  0  0  0  0  0  0  0
    0.7800    3.8440   18.4750 H   0  0  0  0  0  0  0  0  0  0  0  0
   -0.1330    2.2230   20.1180 H   0  0  0  0  0  0  0  0  0  0  0  0
    2.6810    3.5700   23.0610 H   0  0  0  0  0  0  0  0  0  0  0  0
    3.5990    5.2280   21.4500 H   0  0  0  0  0  0  0  0  0  0  0  0
  2  1  2  0  0  0  0
  3 12  1  0  0  0  0
  3  2  1  0  0  0  0
  4  3  2  0  0  0  0
  5  4  1  0  0  0  0
  5  6  1  0  0  0  0
  6  7  2  0  0  0  0
  6 12  1  0  0  0  0
  7  8  1  0  0  0  0
  8 15  1  0  0  0  0
  8  9  2  0  0  0  0
  9 10  1  0  0  0  0
 11  9  1  0  0  0  0
 11 16  1  0  0  0  0
 12 11  2  0  0  0  0
 13  5  1  0  0  0  0
 14  7  1  0  0  0  0
 17 22  1  0  0  0  0
 17  4  1  0  0  0  0
 18 17  2  0  0  0  0
 19 20  2  0  0  0  0
 19 18  1  0  0  0  0
 20 21  1  0  0  0  0
 21 26  1  0  0  0  0
 21 22  2  0  0  0  0
 22 27  1  0  0  0  0
 23 18  1  0  0  0  0
 24 19  1  0  0  0  0
 25 20  1  0  0  0  0
 28 37  1  0  0  0  0
 28  2  1  0  0  0  0
 29 28  2  0  0  0  0
 30 29  1  0  0  0  0
 30 36  2  0  0  0  0
 31 33  1  0  0  0  0
 31 30  1  0  0  0  0
 32 31  2  0  0  0  0
 33 34  1  0  0  0  0
 34 35  2  0  0  0  0
 35 41  1  0  0  0  0
 36 35  1  0  0  0  0
 36 37  1  0  0  0  0
 37 40  1  0  0  0  0
 38 29  1  0  0  0  0
 39 33  1  0  0  0  0
 41 47  1  0  0  0  0
 42 41  2  0  0  0  0
 42 43  1  0  0  0  0
 43 44  2  0  0  0  0
 44 46  1  0  0  0  0
 44 45  1  0  0  0  0
 46 50  1  0  0  0  0
 47 51  1  0  0  0  0
 47 46  2  0  0  0  0
 48 42  1  0  0  0  0
 49 43  1  0  0  0  0
M  END
>  <MODEL>
9

>  <REMARK>
 VINA RESULT:   -10.751      3.804      7.943
 INTER + INTRA:          -9.263
 INTER:                  -7.529
 INTRA:                  -1.734
 UNBOUND:                 4.002
  Name = 
  4 active torsions:
  status: ('A' for Active; 'I' for Inactive)
    1  A    between atoms: C_2  and  C_3
    2  A    between atoms: C_2  and  C_20
    3  A    between atoms: C_10  and  C_11
    4  A    between atoms: C_21  and  C_22
                            x       y       z     vdW  Elec       q    Type
                         _______ _______ _______ _____ _____    ______ ____

>  <TORSDO>
F 4

$$$$
=
 OpenBabel07192307433D

 51 56  0  0  0  0  0  0  0  0999 V2000
    3.1770    9.4180   17.6200 O   0  0  0  0  0  0  0  0  0  0  0  0
    2.3680    9.0900   18.4810 C   0  0  0  0  0  0  0  0  0  0  0  0
    2.3570    7.7470   19.0500 C   0  0  0  0  0  0  0  0  0  0  0  0
    1.7650    7.3560   20.2500 C   0  0  0  0  0  0  0  0  0  0  0  0
    1.9850    6.0050   20.3870 N   0  0  0  0  0  0  0  0  0  0  0  0
    2.7300    5.5190   19.3410 C   0  0  0  0  0  0  0  0  0  0  0  0
    3.1910    4.2210   19.0900 C   0  0  0  0  0  0  0  0  0  0  0  0
    3.9470    4.0150   17.9320 C   0  0  0  0  0  0  0  0  0  0  0  0
    4.2290    5.0720   17.0700 C   0  0  0  0  0  0  0  0  0  0  0  0
    5.2570    4.7570   15.5110 Br  0  0  0  0  0  0  0  0  0  0  0  0
    3.7640    6.3630   17.3330 C   0  0  0  0  0  0  0  0  0  0  0  0
    2.9970    6.5920   18.4930 C   0  0  0  0  0  0  0  0  0  0  0  0
    1.6710    5.4520   21.1730 H   0  0  0  0  0  0  0  0  0  0  0  0
    2.9740    3.3990   19.7650 H   0  0  0  0  0  0  0  0  0  0  0  0
    4.3150    3.0160   17.7140 H   0  0  0  0  0  0  0  0  0  0  0  0
    3.9900    7.1840   16.6580 H   0  0  0  0  0  0  0  0  0  0  0  0
    1.0620    8.1270   21.2720 C   0  0  0  0  0  0  0  0  0  0  0  0
    1.7780    8.8330   22.2480 C   0  0  0  0  0  0  0  0  0  0  0  0
    1.1010    9.5550   23.2360 C   0  0  0  0  0  0  0  0  0  0  0  0
   -0.2930    9.5840   23.2450 C   0  0  0  0  0  0  0  0  0  0  0  0
   -1.0120    8.8890   22.2750 C   0  0  0  0  0  0  0  0  0  0  0  0
   -0.3370    8.1620   21.2920 C   0  0  0  0  0  0  0  0  0  0  0  0
    2.8660    8.8040   22.2670 H   0  0  0  0  0  0  0  0  0  0  0  0
    1.6590   10.0840   24.0040 H   0  0  0  0  0  0  0  0  0  0  0  0
   -0.8190   10.1440   24.0160 H   0  0  0  0  0  0  0  0  0  0  0  0
   -2.0990    8.9130   22.2830 H   0  0  0  0  0  0  0  0  0  0  0  0
   -0.9130    7.6280   20.5390 H   0  0  0  0  0  0  0  0  0  0  0  0
    1.3430   10.0050   18.9510 C   0  0  0  0  0  0  0  0  0  0  0  0
    1.2440   10.7970   20.0860 C   0  0  0  0  0  0  0  0  0  0  0  0
    0.0070   11.4790   20.0320 C   0  0  0  0  0  0  0  0  0  0  0  0
   -0.6080   12.4520   20.9070 C   0  0  0  0  0  0  0  0  0  0  0  0
   -0.0910   12.8550   21.9440 O   0  0  0  0  0  0  0  0  0  0  0  0
   -1.8470   12.8980   20.4590 N   0  0  0  0  0  0  0  0  0  0  0  0
   -2.5230   12.4720   19.3240 N   0  0  0  0  0  0  0  0  0  0  0  0
   -1.9650   11.5650   18.5650 C   0  0  0  0  0  0  0  0  0  0  0  0
   -0.6520   11.0630   18.8970 C   0  0  0  0  0  0  0  0  0  0  0  0
    0.1750   10.1980   18.2350 N   0  0  0  0  0  0  0  0  0  0  0  0
    1.9840   10.8900   20.8730 H   0  0  0  0  0  0  0  0  0  0  0  0
   -2.3260   13.5790   21.0370 H   0  0  0  0  0  0  0  0  0  0  0  0
   -0.0110    9.7400   17.3520 H   0  0  0  0  0  0  0  0  0  0  0  0
   -2.6950   11.0720   17.3710 C   0  0  0  0  0  0  0  0  0  0  0  0
   -3.9660   11.5690   17.0430 C   0  0  0  0  0  0  0  0  0  0  0  0
   -4.6220   11.0980   15.9030 C   0  0  0  0  0  0  0  0  0  0  0  0
   -4.0030   10.1500   15.0950 C   0  0  0  0  0  0  0  0  0  0  0  0
   -4.6340    9.7020   14.0040 F   0  0  0  0  0  0  0  0  0  0  0  0
   -2.7330    9.6670   15.3990 C   0  0  0  0  0  0  0  0  0  0  0  0
   -2.0730   10.1330   16.5380 C   0  0  0  0  0  0  0  0  0  0  0  0
   -4.4380   12.3430   17.6430 H   0  0  0  0  0  0  0  0  0  0  0  0
   -5.6050   11.4730   15.6330 H   0  0  0  0  0  0  0  0  0  0  0  0
   -2.2610    8.9370   14.7480 H   0  0  0  0  0  0  0  0  0  0  0  0
   -1.0760    9.7640   16.7730 H   0  0  0  0  0  0  0  0  0  0  0  0
  1  2  2  0  0  0  0
  2 28  1  0  0  0  0
  2  3  1  0  0  0  0
  3  4  2  0  0  0  0
  4  5  1  0  0  0  0
  4 17  1  0  0  0  0
  5 13  1  0  0  0  0
  6  5  1  0  0  0  0
  7  6  1  0  0  0  0
  7 14  1  0  0  0  0
  8  7  2  0  0  0  0
  9 11  2  0  0  0  0
  9  8  1  0  0  0  0
 10  9  1  0  0  0  0
 11 12  1  0  0  0  0
 12  3  1  0  0  0  0
 12  6  2  0  0  0  0
 15  8  1  0  0  0  0
 16 11  1  0  0  0  0
 17 22  2  0  0  0  0
 17 18  1  0  0  0  0
 18 23  1  0  0  0  0
 18 19  2  0  0  0  0
 19 20  1  0  0  0  0
 19 24  1  0  0  0  0
 20 25  1  0  0  0  0
 21 26  1  0  0  0  0
 21 20  2  0  0  0  0
 22 21  1  0  0  0  0
 27 22  1  0  0  0  0
 28 29  2  0  0  0  0
 29 38  1  0  0  0  0
 30 29  1  0  0  0  0
 30 31  1  0  0  0  0
 31 32  2  0  0  0  0
 33 31  1  0  0  0  0
 33 39  1  0  0  0  0
 34 33  1  0  0  0  0
 35 36  1  0  0  0  0
 35 34  2  0  0  0  0
 36 30  2  0  0  0  0
 37 36  1  0  0  0  0
 37 28  1  0  0  0  0
 40 37  1  0  0  0  0
 41 35  1  0  0  0  0
 42 41  1  0  0  0  0
 42 48  1  0  0  0  0
 43 42  2  0  0  0  0
 44 46  2  0  0  0  0
 44 43  1  0  0  0  0
 45 44  1  0  0  0  0
 46 47  1  0  0  0  0
 47 51  1  0  0  0  0
 47 41  2  0  0  0  0
 49 43  1  0  0  0  0
 50 46  1  0  0  0  0
M  END
>  <MODEL>
10

>  <REMARK>
 VINA RESULT:   -10.734      2.537      4.038
 INTER + INTRA:          -9.243
 INTER:                 -10.022
 INTRA:                   0.779
 UNBOUND:                 4.002
  Name = 
  4 active torsions:
  status: ('A' for Active; 'I' for Inactive)
    1  A    between atoms: C_2  and  C_3
    2  A    between atoms: C_2  and  C_20
    3  A    between atoms: C_10  and  C_11
    4  A    between atoms: C_21  and  C_22
                            x       y       z     vdW  Elec       q    Type
                         _______ _______ _______ _____ _____    ______ ____

>  <TORSDO>
F 4

$$$$
=
 OpenBabel07192307433D

 51 56  0  0  0  0  0  0  0  0999 V2000
    2.4670   11.3710   17.2620 O   0  0  0  0  0  0  0  0  0  0  0  0
    1.7820   11.0610   18.2310 C   0  0  0  0  0  0  0  0  0  0  0  0
    0.9380   12.0330   18.9170 C   0  0  0  0  0  0  0  0  0  0  0  0
   -0.4490   12.1360   18.8340 C   0  0  0  0  0  0  0  0  0  0  0  0
   -0.8260   13.1780   19.6500 N   0  0  0  0  0  0  0  0  0  0  0  0
    0.2700   13.7750   20.2240 C   0  0  0  0  0  0  0  0  0  0  0  0
    0.3470   14.8650   21.0980 C   0  0  0  0  0  0  0  0  0  0  0  0
    1.6170   15.2670   21.5220 C   0  0  0  0  0  0  0  0  0  0  0  0
    2.7570   14.6010   21.0790 C   0  0  0  0  0  0  0  0  0  0  0  0
    4.4620   15.1730   21.6730 Br  0  0  0  0  0  0  0  0  0  0  0  0
    2.6670   13.5150   20.2050 C   0  0  0  0  0  0  0  0  0  0  0  0
    1.3950   13.0910   19.7680 C   0  0  0  0  0  0  0  0  0  0  0  0
   -1.7800   13.4860   19.7790 H   0  0  0  0  0  0  0  0  0  0  0  0
   -0.5430   15.3860   21.4400 H   0  0  0  0  0  0  0  0  0  0  0  0
    1.7040   16.1100   22.2030 H   0  0  0  0  0  0  0  0  0  0  0  0
    3.5600   13.0010   19.8610 H   0  0  0  0  0  0  0  0  0  0  0  0
   -1.4250   11.3870   18.0460 C   0  0  0  0  0  0  0  0  0  0  0  0
   -1.7840   11.8180   16.7620 C   0  0  0  0  0  0  0  0  0  0  0  0
   -2.7310   11.1080   16.0190 C   0  0  0  0  0  0  0  0  0  0  0  0
   -3.3150    9.9590   16.5490 C   0  0  0  0  0  0  0  0  0  0  0  0
   -2.9590    9.5210   17.8240 C   0  0  0  0  0  0  0  0  0  0  0  0
   -2.0180   10.2330   18.5700 C   0  0  0  0  0  0  0  0  0  0  0  0
   -1.3520   12.7240   16.3400 H   0  0  0  0  0  0  0  0  0  0  0  0
   -3.0230   11.4570   15.0310 H   0  0  0  0  0  0  0  0  0  0  0  0
   -4.0540    9.4090   15.9710 H   0  0  0  0  0  0  0  0  0  0  0  0
   -3.4150    8.6240   18.2360 H   0  0  0  0  0  0  0  0  0  0  0  0
   -1.7480    9.8750   19.5620 H   0  0  0  0  0  0  0  0  0  0  0  0
    1.8070    9.7170   18.7820 C   0  0  0  0  0  0  0  0  0  0  0  0
    1.2630    9.1690   19.9350 C   0  0  0  0  0  0  0  0  0  0  0  0
    1.6200    7.8010   19.9740 C   0  0  0  0  0  0  0  0  0  0  0  0
    1.3080    6.7380   20.9030 C   0  0  0  0  0  0  0  0  0  0  0  0
    0.6260    6.8960   21.9100 O   0  0  0  0  0  0  0  0  0  0  0  0
    1.8510    5.5090   20.5450 N   0  0  0  0  0  0  0  0  0  0  0  0
    2.6610    5.2460   19.4500 N   0  0  0  0  0  0  0  0  0  0  0  0
    2.9610    6.2290   18.6400 C   0  0  0  0  0  0  0  0  0  0  0  0
    2.4120    7.5430   18.8770 C   0  0  0  0  0  0  0  0  0  0  0  0
    2.4930    8.6970   18.1480 N   0  0  0  0  0  0  0  0  0  0  0  0
    0.6610    9.6860   20.6730 H   0  0  0  0  0  0  0  0  0  0  0  0
    1.6670    4.7280   21.1640 H   0  0  0  0  0  0  0  0  0  0  0  0
    2.9830    8.8250   17.2710 H   0  0  0  0  0  0  0  0  0  0  0  0
    3.8600    5.9680   17.4890 C   0  0  0  0  0  0  0  0  0  0  0  0
    4.4970    7.0200   16.8140 C   0  0  0  0  0  0  0  0  0  0  0  0
    5.3510    6.7420   15.7430 C   0  0  0  0  0  0  0  0  0  0  0  0
    5.5730    5.4220   15.3650 C   0  0  0  0  0  0  0  0  0  0  0  0
    6.3920    5.1600   14.3410 F   0  0  0  0  0  0  0  0  0  0  0  0
    4.9640    4.3700   16.0420 C   0  0  0  0  0  0  0  0  0  0  0  0
    4.1080    4.6410   17.1120 C   0  0  0  0  0  0  0  0  0  0  0  0
    4.3660    8.0520   17.1310 H   0  0  0  0  0  0  0  0  0  0  0  0
    5.8540    7.5450   15.2120 H   0  0  0  0  0  0  0  0  0  0  0  0
    5.1600    3.3460   15.7410 H   0  0  0  0  0  0  0  0  0  0  0  0
    3.6380    3.8200   17.6490 H   0  0  0  0  0  0  0  0  0  0  0  0
  1  2  2  0  0  0  0
  2 28  1  0  0  0  0
  2  3  1  0  0  0  0
  3 12  1  0  0  0  0
  4  3  2  0  0  0  0
  4  5  1  0  0  0  0
  5 13  1  0  0  0  0
  5  6  1  0  0  0  0
  6  7  1  0  0  0  0
  7 14  1  0  0  0  0
  7  8  2  0  0  0  0
  8 15  1  0  0  0  0
  9  8  1  0  0  0  0
  9 10  1  0  0  0  0
 11  9  2  0  0  0  0
 12 11  1  0  0  0  0
 12  6  2  0  0  0  0
 16 11  1  0  0  0  0
 17 22  1  0  0  0  0
 17  4  1  0  0  0  0
 18 17  2  0  0  0  0
 19 20  2  0  0  0  0
 19 18  1  0  0  0  0
 20 21  1  0  0  0  0
 21 26  1  0  0  0  0
 21 22  2  0  0  0  0
 22 27  1  0  0  0  0
 23 18  1  0  0  0  0
 24 19  1  0  0  0  0
 25 20  1  0  0  0  0
 28 29  2  0  0  0  0
 29 30  1  0  0  0  0
 29 38  1  0  0  0  0
 30 31  1  0  0  0  0
 31 32  2  0  0  0  0
 33 31  1  0  0  0  0
 33 39  1  0  0  0  0
 34 33  1  0  0  0  0
 35 36  1  0  0  0  0
 35 34  2  0  0  0  0
 36 30  2  0  0  0  0
 37 28  1  0  0  0  0
 37 36  1  0  0  0  0
 40 37  1  0  0  0  0
 41 35  1  0  0  0  0
 42 48  1  0  0  0  0
 42 41  2  0  0  0  0
 43 42  1  0  0  0  0
 44 43  2  0  0  0  0
 44 46  1  0  0  0  0
 45 44  1  0  0  0  0
 46 47  2  0  0  0  0
 47 41  1  0  0  0  0
 47 51  1  0  0  0  0
 49 43  1  0  0  0  0
 50 46  1  0  0  0  0
M  END
>  <MODEL>
11

>  <REMARK>
 VINA RESULT:   -10.729      3.907      8.238
 INTER + INTRA:          -9.236
 INTER:                  -7.995
 INTRA:                  -1.241
 UNBOUND:                 4.002
  Name = 
  4 active torsions:
  status: ('A' for Active; 'I' for Inactive)
    1  A    between atoms: C_2  and  C_3
    2  A    between atoms: C_2  and  C_20
    3  A    between atoms: C_10  and  C_11
    4  A    between atoms: C_21  and  C_22
                            x       y       z     vdW  Elec       q    Type
                         _______ _______ _______ _____ _____    ______ ____

>  <TORSDO>
F 4

$$$$
=
 OpenBabel07192307433D

 51 56  0  0  0  0  0  0  0  0999 V2000
    0.7550    7.6270   21.5800 O   0  0  0  0  0  0  0  0  0  0  0  0
    0.7940    8.6250   20.8690 C   0  0  0  0  0  0  0  0  0  0  0  0
    1.3130    8.5760   19.5070 C   0  0  0  0  0  0  0  0  0  0  0  0
    0.8920    9.3490   18.4270 C   0  0  0  0  0  0  0  0  0  0  0  0
    1.6590    8.9840   17.3450 N   0  0  0  0  0  0  0  0  0  0  0  0
    2.5320    7.9770   17.6780 C   0  0  0  0  0  0  0  0  0  0  0  0
    3.4740    7.3050   16.8910 C   0  0  0  0  0  0  0  0  0  0  0  0
    4.2310    6.3010   17.5020 C   0  0  0  0  0  0  0  0  0  0  0  0
    4.0430    5.9890   18.8460 C   0  0  0  0  0  0  0  0  0  0  0  0
    5.0860    4.6240   19.6420 Br  0  0  0  0  0  0  0  0  0  0  0  0
    3.0990    6.6670   19.6210 C   0  0  0  0  0  0  0  0  0  0  0  0
    2.3260    7.6850   19.0250 C   0  0  0  0  0  0  0  0  0  0  0  0
    1.5660    9.3790   16.4190 H   0  0  0  0  0  0  0  0  0  0  0  0
    3.6170    7.5470   15.8420 H   0  0  0  0  0  0  0  0  0  0  0  0
    4.9710    5.7660   16.9130 H   0  0  0  0  0  0  0  0  0  0  0  0
    2.9550    6.4160   20.6680 H   0  0  0  0  0  0  0  0  0  0  0  0
   -0.1690   10.3480   18.3140 C   0  0  0  0  0  0  0  0  0  0  0  0
    0.1440   11.7110   18.2360 C   0  0  0  0  0  0  0  0  0  0  0  0
   -0.8750   12.6640   18.1460 C   0  0  0  0  0  0  0  0  0  0  0  0
   -2.2090   12.2600   18.1240 C   0  0  0  0  0  0  0  0  0  0  0  0
   -2.5270   10.9050   18.1970 C   0  0  0  0  0  0  0  0  0  0  0  0
   -1.5110    9.9520   18.2930 C   0  0  0  0  0  0  0  0  0  0  0  0
    1.1790   12.0460   18.2710 H   0  0  0  0  0  0  0  0  0  0  0  0
   -0.6290   13.7230   18.1060 H   0  0  0  0  0  0  0  0  0  0  0  0
   -3.0000   13.0020   18.0570 H   0  0  0  0  0  0  0  0  0  0  0  0
   -3.5680   10.5910   18.1790 H   0  0  0  0  0  0  0  0  0  0  0  0
   -1.7770    8.8980   18.3450 H   0  0  0  0  0  0  0  0  0  0  0  0
    0.3700    9.9250   21.3580 C   0  0  0  0  0  0  0  0  0  0  0  0
   -0.7460   10.3380   22.0720 C   0  0  0  0  0  0  0  0  0  0  0  0
   -0.6460   11.7350   22.2620 C   0  0  0  0  0  0  0  0  0  0  0  0
   -1.4840   12.6870   22.9570 C   0  0  0  0  0  0  0  0  0  0  0  0
   -2.5260   12.3820   23.5290 O   0  0  0  0  0  0  0  0  0  0  0  0
   -0.9950   13.9880   22.9230 N   0  0  0  0  0  0  0  0  0  0  0  0
    0.1490   14.4290   22.2720 N   0  0  0  0  0  0  0  0  0  0  0  0
    0.8740   13.5580   21.6190 C   0  0  0  0  0  0  0  0  0  0  0  0
    0.4980   12.1650   21.6270 C   0  0  0  0  0  0  0  0  0  0  0  0
    1.1200   11.0610   21.1110 N   0  0  0  0  0  0  0  0  0  0  0  0
   -1.5500    9.7060   22.4330 H   0  0  0  0  0  0  0  0  0  0  0  0
   -1.5460   14.6980   23.3910 H   0  0  0  0  0  0  0  0  0  0  0  0
    1.9980   11.0420   20.6090 H   0  0  0  0  0  0  0  0  0  0  0  0
    2.0770   14.0250   20.8850 C   0  0  0  0  0  0  0  0  0  0  0  0
    3.3230   14.1200   21.5220 C   0  0  0  0  0  0  0  0  0  0  0  0
    4.4410   14.5470   20.8010 C   0  0  0  0  0  0  0  0  0  0  0  0
    4.3100   14.8600   19.4520 C   0  0  0  0  0  0  0  0  0  0  0  0
    5.3830   15.2670   18.7640 F   0  0  0  0  0  0  0  0  0  0  0  0
    3.0840   14.7480   18.8040 C   0  0  0  0  0  0  0  0  0  0  0  0
    1.9620   14.3230   19.5210 C   0  0  0  0  0  0  0  0  0  0  0  0
    3.4440   13.8340   22.5640 H   0  0  0  0  0  0  0  0  0  0  0  0
    5.4140   14.6240   21.2780 H   0  0  0  0  0  0  0  0  0  0  0  0
    3.0050   14.9840   17.7480 H   0  0  0  0  0  0  0  0  0  0  0  0
    1.0040   14.2250   19.0150 H   0  0  0  0  0  0  0  0  0  0  0  0
  2 28  1  0  0  0  0
  2  1  2  0  0  0  0
  3  2  1  0  0  0  0
  4  3  2  0  0  0  0
  5  6  1  0  0  0  0
  5  4  1  0  0  0  0
  6 12  1  0  0  0  0
  7  8  1  0  0  0  0
  7  6  2  0  0  0  0
  8  9  2  0  0  0  0
  9 11  1  0  0  0  0
  9 10  1  0  0  0  0
 11 16  1  0  0  0  0
 12  3  1  0  0  0  0
 12 11  2  0  0  0  0
 13  5  1  0  0  0  0
 14  7  1  0  0  0  0
 15  8  1  0  0  0  0
 17  4  1  0  0  0  0
 18 23  1  0  0  0  0
 18 17  2  0  0  0  0
 19 18  1  0  0  0  0
 20 19  2  0  0  0  0
 20 21  1  0  0  0  0
 21 22  2  0  0  0  0
 22 17  1  0  0  0  0
 22 27  1  0  0  0  0
 24 19  1  0  0  0  0
 25 20  1  0  0  0  0
 26 21  1  0  0  0  0
 28 29  2  0  0  0  0
 29 30  1  0  0  0  0
 29 38  1  0  0  0  0
 30 31  1  0  0  0  0
 31 32  2  0  0  0  0
 33 31  1  0  0  0  0
 33 39  1  0  0  0  0
 34 33  1  0  0  0  0
 35 36  1  0  0  0  0
 35 34  2  0  0  0  0
 36 30  2  0  0  0  0
 37 28  1  0  0  0  0
 37 36  1  0  0  0  0
 40 37  1  0  0  0  0
 41 42  1  0  0  0  0
 41 35  1  0  0  0  0
 42 48  1  0  0  0  0
 43 49  1  0  0  0  0
 43 42  2  0  0  0  0
 44 43  1  0  0  0  0
 45 44  1  0  0  0  0
 46 44  2  0  0  0  0
 46 47  1  0  0  0  0
 47 41  2  0  0  0  0
 50 46  1  0  0  0  0
 51 47  1  0  0  0  0
M  END
>  <MODEL>
12

>  <REMARK>
 VINA RESULT:   -10.604      3.148      4.625
 INTER + INTRA:          -9.082
 INTER:                  -7.921
 INTRA:                  -1.161
 UNBOUND:                 4.002
  Name = 
  4 active torsions:
  status: ('A' for Active; 'I' for Inactive)
    1  A    between atoms: C_2  and  C_3
    2  A    between atoms: C_2  and  C_20
    3  A    between atoms: C_10  and  C_11
    4  A    between atoms: C_21  and  C_22
                            x       y       z     vdW  Elec       q    Type
                         _______ _______ _______ _____ _____    ______ ____

>  <TORSDO>
F 4

$$$$
=
 OpenBabel07192307433D

 51 56  0  0  0  0  0  0  0  0999 V2000
    2.7330   11.3560   17.2360 O   0  0  0  0  0  0  0  0  0  0  0  0
    1.9540   11.0070   18.1160 C   0  0  0  0  0  0  0  0  0  0  0  0
    0.9820   11.9300   18.6900 C   0  0  0  0  0  0  0  0  0  0  0  0
    1.2590   13.1120   19.3750 C   0  0  0  0  0  0  0  0  0  0  0  0
    0.0500   13.6680   19.7260 N   0  0  0  0  0  0  0  0  0  0  0  0
   -0.9940   12.8690   19.3290 C   0  0  0  0  0  0  0  0  0  0  0  0
   -2.3730   13.0420   19.4920 C   0  0  0  0  0  0  0  0  0  0  0  0
   -3.2140   12.0470   18.9860 C   0  0  0  0  0  0  0  0  0  0  0  0
   -2.6870   10.9270   18.3470 C   0  0  0  0  0  0  0  0  0  0  0  0
   -3.8570    9.5990   17.6740 Br  0  0  0  0  0  0  0  0  0  0  0  0
   -1.3080   10.7660   18.1910 C   0  0  0  0  0  0  0  0  0  0  0  0
   -0.4410   11.7590   18.6920 C   0  0  0  0  0  0  0  0  0  0  0  0
   -0.0530   14.5320   20.2410 H   0  0  0  0  0  0  0  0  0  0  0  0
   -2.7830   13.9130   19.9930 H   0  0  0  0  0  0  0  0  0  0  0  0
   -4.2900   12.1580   19.0980 H   0  0  0  0  0  0  0  0  0  0  0  0
   -0.9030    9.8890   17.6950 H   0  0  0  0  0  0  0  0  0  0  0  0
    2.5270   13.7300   19.7520 C   0  0  0  0  0  0  0  0  0  0  0  0
    2.9490   13.7300   21.0880 C   0  0  0  0  0  0  0  0  0  0  0  0
    4.1550   14.3390   21.4480 C   0  0  0  0  0  0  0  0  0  0  0  0
    4.9500   14.9400   20.4730 C   0  0  0  0  0  0  0  0  0  0  0  0
    4.5400   14.9400   19.1420 C   0  0  0  0  0  0  0  0  0  0  0  0
    3.3320   14.3390   18.7820 C   0  0  0  0  0  0  0  0  0  0  0  0
    2.3310   13.2820   21.8650 H   0  0  0  0  0  0  0  0  0  0  0  0
    4.4690   14.3550   22.4890 H   0  0  0  0  0  0  0  0  0  0  0  0
    5.8860   15.4160   20.7550 H   0  0  0  0  0  0  0  0  0  0  0  0
    5.1610   15.4090   18.3830 H   0  0  0  0  0  0  0  0  0  0  0  0
    3.0280   14.3430   17.7370 H   0  0  0  0  0  0  0  0  0  0  0  0
    1.9850    9.6660   18.6730 C   0  0  0  0  0  0  0  0  0  0  0  0
    1.4510    9.1210   19.8320 C   0  0  0  0  0  0  0  0  0  0  0  0
    1.8100    7.7540   19.8730 C   0  0  0  0  0  0  0  0  0  0  0  0
    1.5070    6.6950   20.8090 C   0  0  0  0  0  0  0  0  0  0  0  0
    0.8340    6.8560   21.8220 O   0  0  0  0  0  0  0  0  0  0  0  0
    2.0470    5.4650   20.4510 N   0  0  0  0  0  0  0  0  0  0  0  0
    2.8480    5.1970   19.3500 N   0  0  0  0  0  0  0  0  0  0  0  0
    3.1400    6.1770   18.5340 C   0  0  0  0  0  0  0  0  0  0  0  0
    2.5920    7.4920   18.7710 C   0  0  0  0  0  0  0  0  0  0  0  0
    2.6660    8.6430   18.0360 N   0  0  0  0  0  0  0  0  0  0  0  0
    0.8550    9.6410   20.5730 H   0  0  0  0  0  0  0  0  0  0  0  0
    1.8690    4.6860   21.0760 H   0  0  0  0  0  0  0  0  0  0  0  0
    3.1470    8.7680   17.1550 H   0  0  0  0  0  0  0  0  0  0  0  0
    4.0290    5.9130   17.3750 C   0  0  0  0  0  0  0  0  0  0  0  0
    4.6520    6.9630   16.6850 C   0  0  0  0  0  0  0  0  0  0  0  0
    5.4960    6.6820   15.6080 C   0  0  0  0  0  0  0  0  0  0  0  0
    5.7230    5.3600   15.2390 C   0  0  0  0  0  0  0  0  0  0  0  0
    6.5330    5.0940   14.2080 F   0  0  0  0  0  0  0  0  0  0  0  0
    5.1280    4.3090   15.9310 C   0  0  0  0  0  0  0  0  0  0  0  0
    4.2810    4.5840   17.0080 C   0  0  0  0  0  0  0  0  0  0  0  0
    4.5160    7.9970   16.9950 H   0  0  0  0  0  0  0  0  0  0  0  0
    5.9880    7.4830   15.0640 H   0  0  0  0  0  0  0  0  0  0  0  0
    5.3280    3.2840   15.6360 H   0  0  0  0  0  0  0  0  0  0  0  0
    3.8220    3.7640   17.5570 H   0  0  0  0  0  0  0  0  0  0  0  0
  1  2  2  0  0  0  0
  2 28  1  0  0  0  0
  2  3  1  0  0  0  0
  3 12  1  0  0  0  0
  3  4  2  0  0  0  0
  4  5  1  0  0  0  0
  4 17  1  0  0  0  0
  5 13  1  0  0  0  0
  6  7  1  0  0  0  0
  6  5  1  0  0  0  0
  7 14  1  0  0  0  0
  8 15  1  0  0  0  0
  8  7  2  0  0  0  0
  9  8  1  0  0  0  0
 10  9  1  0  0  0  0
 11  9  2  0  0  0  0
 11 12  1  0  0  0  0
 12  6  2  0  0  0  0
 16 11  1  0  0  0  0
 17 18  1  0  0  0  0
 18 19  2  0  0  0  0
 18 23  1  0  0  0  0
 19 24  1  0  0  0  0
 20 25  1  0  0  0  0
 20 19  1  0  0  0  0
 21 20  2  0  0  0  0
 22 21  1  0  0  0  0
 22 17  2  0  0  0  0
 26 21  1  0  0  0  0
 27 22  1  0  0  0  0
 28 29  2  0  0  0  0
 29 30  1  0  0  0  0
 29 38  1  0  0  0  0
 30 31  1  0  0  0  0
 31 32  2  0  0  0  0
 33 31  1  0  0  0  0
 33 39  1  0  0  0  0
 34 33  1  0  0  0  0
 35 36  1  0  0  0  0
 35 34  2  0  0  0  0
 36 30  2  0  0  0  0
 37 28  1  0  0  0  0
 37 36  1  0  0  0  0
 40 37  1  0  0  0  0
 41 35  1  0  0  0  0
 42 48  1  0  0  0  0
 42 41  2  0  0  0  0
 43 42  1  0  0  0  0
 44 43  2  0  0  0  0
 44 46  1  0  0  0  0
 45 44  1  0  0  0  0
 46 47  2  0  0  0  0
 47 41  1  0  0  0  0
 47 51  1  0  0  0  0
 49 43  1  0  0  0  0
 50 46  1  0  0  0  0
M  END
>  <MODEL>
13

>  <REMARK>
 VINA RESULT:   -10.396      4.017      8.249
 INTER + INTRA:          -8.825
 INTER:                  -7.971
 INTRA:                  -0.854
 UNBOUND:                 4.002
  Name = 
  4 active torsions:
  status: ('A' for Active; 'I' for Inactive)
    1  A    between atoms: C_2  and  C_3
    2  A    between atoms: C_2  and  C_20
    3  A    between atoms: C_10  and  C_11
    4  A    between atoms: C_21  and  C_22
                            x       y       z     vdW  Elec       q    Type
                         _______ _______ _______ _____ _____    ______ ____

>  <TORSDO>
F 4

$$$$
=
 OpenBabel07192307433D

 51 56  0  0  0  0  0  0  0  0999 V2000
    0.3230   10.5640   21.4240 O   0  0  0  0  0  0  0  0  0  0  0  0
    0.0860   11.7060   21.0470 C   0  0  0  0  0  0  0  0  0  0  0  0
   -1.2650   12.2550   21.0640 C   0  0  0  0  0  0  0  0  0  0  0  0
   -2.2520   12.0680   20.0980 C   0  0  0  0  0  0  0  0  0  0  0  0
   -3.3680   12.7520   20.5240 N   0  0  0  0  0  0  0  0  0  0  0  0
   -3.1240   13.4050   21.7070 C   0  0  0  0  0  0  0  0  0  0  0  0
   -3.9630   14.2190   22.4760 C   0  0  0  0  0  0  0  0  0  0  0  0
   -3.4360   14.7670   23.6500 C   0  0  0  0  0  0  0  0  0  0  0  0
   -2.1210   14.5070   24.0270 C   0  0  0  0  0  0  0  0  0  0  0  0
   -1.4400   15.2660   25.6220 Br  0  0  0  0  0  0  0  0  0  0  0  0
   -1.2930   13.6940   23.2490 C   0  0  0  0  0  0  0  0  0  0  0  0
   -1.8050   13.1280   22.0630 C   0  0  0  0  0  0  0  0  0  0  0  0
   -4.2390   12.7980   20.0130 H   0  0  0  0  0  0  0  0  0  0  0  0
   -4.9870   14.4230   22.1790 H   0  0  0  0  0  0  0  0  0  0  0  0
   -4.0680   15.4000   24.2660 H   0  0  0  0  0  0  0  0  0  0  0  0
   -0.2660   13.4980   23.5470 H   0  0  0  0  0  0  0  0  0  0  0  0
   -2.2290   11.3540   18.8240 C   0  0  0  0  0  0  0  0  0  0  0  0
   -3.1720   11.6420   17.8300 C   0  0  0  0  0  0  0  0  0  0  0  0
   -3.1570   10.9440   16.6190 C   0  0  0  0  0  0  0  0  0  0  0  0
   -2.1930    9.9620   16.3920 C   0  0  0  0  0  0  0  0  0  0  0  0
   -1.2490    9.6730   17.3750 C   0  0  0  0  0  0  0  0  0  0  0  0
   -1.2660   10.3650   18.5870 C   0  0  0  0  0  0  0  0  0  0  0  0
   -3.9440   12.3920   17.9980 H   0  0  0  0  0  0  0  0  0  0  0  0
   -3.9040   11.1560   15.8570 H   0  0  0  0  0  0  0  0  0  0  0  0
   -2.1850    9.4170   15.4510 H   0  0  0  0  0  0  0  0  0  0  0  0
   -0.4970    8.9080   17.1960 H   0  0  0  0  0  0  0  0  0  0  0  0
   -0.5190   10.1300   19.3420 H   0  0  0  0  0  0  0  0  0  0  0  0
    1.1300   12.5640   20.5150 C   0  0  0  0  0  0  0  0  0  0  0  0
    1.3780   13.0580   19.2420 C   0  0  0  0  0  0  0  0  0  0  0  0
    2.5560   13.8390   19.3030 C   0  0  0  0  0  0  0  0  0  0  0  0
    3.2600   14.6170   18.3090 C   0  0  0  0  0  0  0  0  0  0  0  0
    2.9040   14.7060   17.1380 O   0  0  0  0  0  0  0  0  0  0  0  0
    4.3840   15.2670   18.8060 N   0  0  0  0  0  0  0  0  0  0  0  0
    4.8820   15.1950   20.0990 N   0  0  0  0  0  0  0  0  0  0  0  0
    4.2500   14.4570   20.9740 C   0  0  0  0  0  0  0  0  0  0  0  0
    3.0360   13.7750   20.5910 C   0  0  0  0  0  0  0  0  0  0  0  0
    2.1530   13.0300   21.3230 N   0  0  0  0  0  0  0  0  0  0  0  0
    0.7760   12.8900   18.3580 H   0  0  0  0  0  0  0  0  0  0  0  0
    4.9200   15.8250   18.1500 H   0  0  0  0  0  0  0  0  0  0  0  0
    2.2110   12.8220   22.3110 H   0  0  0  0  0  0  0  0  0  0  0  0
    4.7950   14.3400   22.3500 C   0  0  0  0  0  0  0  0  0  0  0  0
    4.4450   15.2600   23.3490 C   0  0  0  0  0  0  0  0  0  0  0  0
    4.9610   15.1140   24.6390 C   0  0  0  0  0  0  0  0  0  0  0  0
    5.8080   14.0470   24.9240 C   0  0  0  0  0  0  0  0  0  0  0  0
    6.2990   13.9100   26.1610 F   0  0  0  0  0  0  0  0  0  0  0  0
    6.1430   13.1160   23.9470 C   0  0  0  0  0  0  0  0  0  0  0  0
    5.6310   13.2570   22.6550 C   0  0  0  0  0  0  0  0  0  0  0  0
    3.7480   16.0700   23.1470 H   0  0  0  0  0  0  0  0  0  0  0  0
    4.6990   15.8160   25.4250 H   0  0  0  0  0  0  0  0  0  0  0  0
    6.7940   12.2830   24.1930 H   0  0  0  0  0  0  0  0  0  0  0  0
    5.8840   12.5250   21.8900 H   0  0  0  0  0  0  0  0  0  0  0  0
  2  3  1  0  0  0  0
  2  1  2  0  0  0  0
  3 12  1  0  0  0  0
  4  5  1  0  0  0  0
  4  3  2  0  0  0  0
  5  6  1  0  0  0  0
  6 12  2  0  0  0  0
  6  7  1  0  0  0  0
  7  8  2  0  0  0  0
  8  9  1  0  0  0  0
  8 15  1  0  0  0  0
  9 10  1  0  0  0  0
 11 16  1  0  0  0  0
 11  9  2  0  0  0  0
 12 11  1  0  0  0  0
 13  5  1  0  0  0  0
 14  7  1  0  0  0  0
 17  4  1  0  0  0  0
 18 23  1  0  0  0  0
 18 17  2  0  0  0  0
 19 18  1  0  0  0  0
 20 19  2  0  0  0  0
 20 21  1  0  0  0  0
 21 22  2  0  0  0  0
 22 17  1  0  0  0  0
 22 27  1  0  0  0  0
 24 19  1  0  0  0  0
 25 20  1  0  0  0  0
 26 21  1  0  0  0  0
 28  2  1  0  0  0  0
 28 37  1  0  0  0  0
 29 30  1  0  0  0  0
 29 28  2  0  0  0  0
 30 36  2  0  0  0  0
 31 33  1  0  0  0  0
 31 30  1  0  0  0  0
 32 31  2  0  0  0  0
 33 34  1  0  0  0  0
 34 35  2  0  0  0  0
 35 41  1  0  0  0  0
 36 35  1  0  0  0  0
 36 37  1  0  0  0  0
 37 40  1  0  0  0  0
 38 29  1  0  0  0  0
 39 33  1  0  0  0  0
 41 47  2  0  0  0  0
 41 42  1  0  0  0  0
 42 43  2  0  0  0  0
 43 44  1  0  0  0  0
 43 49  1  0  0  0  0
 44 45  1  0  0  0  0
 46 50  1  0  0  0  0
 46 44  2  0  0  0  0
 47 46  1  0  0  0  0
 48 42  1  0  0  0  0
 51 47  1  0  0  0  0
M  END
>  <MODEL>
14

>  <REMARK>
 VINA RESULT:   -10.368      4.938      8.060
 INTER + INTRA:          -8.791
 INTER:                  -7.448
 INTRA:                  -1.343
 UNBOUND:                 4.002
  Name = 
  4 active torsions:
  status: ('A' for Active; 'I' for Inactive)
    1  A    between atoms: C_2  and  C_3
    2  A    between atoms: C_2  and  C_20
    3  A    between atoms: C_10  and  C_11
    4  A    between atoms: C_21  and  C_22
                            x       y       z     vdW  Elec       q    Type
                         _______ _______ _______ _____ _____    ______ ____

>  <TORSDO>
F 4

$$$$
=
 OpenBabel07192307433D

 51 56  0  0  0  0  0  0  0  0999 V2000
    0.0560   11.8900   22.4940 O   0  0  0  0  0  0  0  0  0  0  0  0
    0.1260   12.1490   21.2970 C   0  0  0  0  0  0  0  0  0  0  0  0
   -0.8800   11.6800   20.3510 C   0  0  0  0  0  0  0  0  0  0  0  0
   -0.7600   10.6070   19.4710 C   0  0  0  0  0  0  0  0  0  0  0  0
   -1.9470   10.5160   18.7800 N   0  0  0  0  0  0  0  0  0  0  0  0
   -2.8120   11.5140   19.1550 C   0  0  0  0  0  0  0  0  0  0  0  0
   -4.1050   11.8020   18.7030 C   0  0  0  0  0  0  0  0  0  0  0  0
   -4.7580   12.9030   19.2650 C   0  0  0  0  0  0  0  0  0  0  0  0
   -4.1320   13.6810   20.2360 C   0  0  0  0  0  0  0  0  0  0  0  0
   -5.0450   15.1650   20.9750 Br  0  0  0  0  0  0  0  0  0  0  0  0
   -2.8400   13.3830   20.6780 C   0  0  0  0  0  0  0  0  0  0  0  0
   -2.1650   12.2750   20.1270 C   0  0  0  0  0  0  0  0  0  0  0  0
   -2.1410    9.8280   18.0660 H   0  0  0  0  0  0  0  0  0  0  0  0
   -4.5910   11.1970   17.9420 H   0  0  0  0  0  0  0  0  0  0  0  0
   -5.7630   13.1460   18.9320 H   0  0  0  0  0  0  0  0  0  0  0  0
   -2.3560   13.9950   21.4340 H   0  0  0  0  0  0  0  0  0  0  0  0
    0.3570    9.7060   19.1990 C   0  0  0  0  0  0  0  0  0  0  0  0
    0.9160    9.6320   17.9170 C   0  0  0  0  0  0  0  0  0  0  0  0
    1.9740    8.7550   17.6570 C   0  0  0  0  0  0  0  0  0  0  0  0
    2.4840    7.9570   18.6800 C   0  0  0  0  0  0  0  0  0  0  0  0
    1.9360    8.0280   19.9590 C   0  0  0  0  0  0  0  0  0  0  0  0
    0.8760    8.8980   20.2180 C   0  0  0  0  0  0  0  0  0  0  0  0
    0.5170   10.2340   17.1020 H   0  0  0  0  0  0  0  0  0  0  0  0
    2.3920    8.6860   16.6560 H   0  0  0  0  0  0  0  0  0  0  0  0
    3.3050    7.2730   18.4760 H   0  0  0  0  0  0  0  0  0  0  0  0
    2.3360    7.4050   20.7560 H   0  0  0  0  0  0  0  0  0  0  0  0
    0.4620    8.9450   21.2240 H   0  0  0  0  0  0  0  0  0  0  0  0
    1.2400   12.8980   20.7440 C   0  0  0  0  0  0  0  0  0  0  0  0
    1.5120   13.3630   19.4650 C   0  0  0  0  0  0  0  0  0  0  0  0
    2.7620   14.0230   19.5010 C   0  0  0  0  0  0  0  0  0  0  0  0
    3.5220   14.7260   18.4920 C   0  0  0  0  0  0  0  0  0  0  0  0
    3.1550   14.8480   17.3280 O   0  0  0  0  0  0  0  0  0  0  0  0
    4.7140   15.2620   18.9660 N   0  0  0  0  0  0  0  0  0  0  0  0
    5.2260   15.1430   20.2510 N   0  0  0  0  0  0  0  0  0  0  0  0
    4.5400   14.4720   21.1400 C   0  0  0  0  0  0  0  0  0  0  0  0
    3.2580   13.9140   20.7810 C   0  0  0  0  0  0  0  0  0  0  0  0
    2.3180   13.2610   21.5310 N   0  0  0  0  0  0  0  0  0  0  0  0
    0.8800   13.2540   18.5920 H   0  0  0  0  0  0  0  0  0  0  0  0
    5.2910   15.7620   18.2990 H   0  0  0  0  0  0  0  0  0  0  0  0
    2.3740   13.0500   22.5190 H   0  0  0  0  0  0  0  0  0  0  0  0
    5.0960   14.3040   22.5050 C   0  0  0  0  0  0  0  0  0  0  0  0
    5.9470   13.2320   22.8140 C   0  0  0  0  0  0  0  0  0  0  0  0
    6.4680   13.1090   24.1050 C   0  0  0  0  0  0  0  0  0  0  0  0
    6.1490   14.0600   25.0690 C   0  0  0  0  0  0  0  0  0  0  0  0
    6.6510   13.9400   26.3030 F   0  0  0  0  0  0  0  0  0  0  0  0
    5.3240   15.1390   24.7670 C   0  0  0  0  0  0  0  0  0  0  0  0
    4.7990   15.2670   23.4790 C   0  0  0  0  0  0  0  0  0  0  0  0
    6.2380   12.5100   22.0550 H   0  0  0  0  0  0  0  0  0  0  0  0
    7.1300   12.2870   24.3600 H   0  0  0  0  0  0  0  0  0  0  0  0
    5.0970   15.8780   25.5300 H   0  0  0  0  0  0  0  0  0  0  0  0
    4.1610   16.1150   23.2380 H   0  0  0  0  0  0  0  0  0  0  0  0
  2  1  2  0  0  0  0
  3  2  1  0  0  0  0
  4  3  2  0  0  0  0
  5  6  1  0  0  0  0
  5  4  1  0  0  0  0
  6 12  1  0  0  0  0
  7  6  2  0  0  0  0
  7  8  1  0  0  0  0
  8  9  2  0  0  0  0
  9 11  1  0  0  0  0
  9 10  1  0  0  0  0
 11 16  1  0  0  0  0
 12  3  1  0  0  0  0
 12 11  2  0  0  0  0
 13  5  1  0  0  0  0
 14  7  1  0  0  0  0
 15  8  1  0  0  0  0
 17  4  1  0  0  0  0
 17 22  1  0  0  0  0
 18 17  2  0  0  0  0
 19 18  1  0  0  0  0
 19 20  2  0  0  0  0
 20 21  1  0  0  0  0
 21 22  2  0  0  0  0
 21 26  1  0  0  0  0
 22 27  1  0  0  0  0
 23 18  1  0  0  0  0
 24 19  1  0  0  0  0
 25 20  1  0  0  0  0
 28  2  1  0  0  0  0
 28 37  1  0  0  0  0
 29 30  1  0  0  0  0
 29 28  2  0  0  0  0
 30 36  2  0  0  0  0
 31 33  1  0  0  0  0
 31 30  1  0  0  0  0
 32 31  2  0  0  0  0
 33 34  1  0  0  0  0
 34 35  2  0  0  0  0
 35 41  1  0  0  0  0
 36 35  1  0  0  0  0
 36 37  1  0  0  0  0
 37 40  1  0  0  0  0
 38 29  1  0  0  0  0
 39 33  1  0  0  0  0
 41 42  2  0  0  0  0
 41 47  1  0  0  0  0
 42 43  1  0  0  0  0
 43 49  1  0  0  0  0
 43 44  2  0  0  0  0
 44 45  1  0  0  0  0
 46 44  1  0  0  0  0
 46 50  1  0  0  0  0
 47 46  2  0  0  0  0
 48 42  1  0  0  0  0
 51 47  1  0  0  0  0
M  END
>  <MODEL>
15

>  <REMARK>
 VINA RESULT:   -10.315      4.843      7.557
 INTER + INTRA:          -8.725
 INTER:                  -7.031
 INTRA:                  -1.694
 UNBOUND:                 4.002
  Name = 
  4 active torsions:
  status: ('A' for Active; 'I' for Inactive)
    1  A    between atoms: C_2  and  C_3
    2  A    between atoms: C_2  and  C_20
    3  A    between atoms: C_10  and  C_11
    4  A    between atoms: C_21  and  C_22
                            x       y       z     vdW  Elec       q    Type
                         _______ _______ _______ _____ _____    ______ ____

>  <TORSDO>
F 4

$$$$
=
 OpenBabel07192307433D

 51 56  0  0  0  0  0  0  0  0999 V2000
    8.4430    5.5620   19.9070 O   0  0  0  0  0  0  0  0  0  0  0  0
    7.5030    5.8940   19.1940 C   0  0  0  0  0  0  0  0  0  0  0  0
    7.6070    7.0040   18.2530 C   0  0  0  0  0  0  0  0  0  0  0  0
    7.2460    6.9930   16.9080 C   0  0  0  0  0  0  0  0  0  0  0  0
    7.5010    8.2500   16.4100 N   0  0  0  0  0  0  0  0  0  0  0  0
    8.0490    9.0590   17.3750 C   0  0  0  0  0  0  0  0  0  0  0  0
    8.4690   10.3920   17.3000 C   0  0  0  0  0  0  0  0  0  0  0  0
    9.0050   10.9680   18.4560 C   0  0  0  0  0  0  0  0  0  0  0  0
    9.1160   10.2300   19.6320 C   0  0  0  0  0  0  0  0  0  0  0  0
    9.8480   11.0420   21.1780 Br  0  0  0  0  0  0  0  0  0  0  0  0
    8.6940    8.9000   19.6930 C   0  0  0  0  0  0  0  0  0  0  0  0
    8.1470    8.3000   18.5400 C   0  0  0  0  0  0  0  0  0  0  0  0
    7.3400    8.5290   15.4520 H   0  0  0  0  0  0  0  0  0  0  0  0
    8.3860   10.9650   16.3820 H   0  0  0  0  0  0  0  0  0  0  0  0
    9.3370   12.0030   18.4240 H   0  0  0  0  0  0  0  0  0  0  0  0
    8.7860    8.3280   20.6120 H   0  0  0  0  0  0  0  0  0  0  0  0
    6.7330    5.9200   16.0580 C   0  0  0  0  0  0  0  0  0  0  0  0
    7.6110    5.1130   15.3240 C   0  0  0  0  0  0  0  0  0  0  0  0
    7.1140    4.0990   14.4990 C   0  0  0  0  0  0  0  0  0  0  0  0
    5.7390    3.8820   14.4120 C   0  0  0  0  0  0  0  0  0  0  0  0
    4.8600    4.6780   15.1430 C   0  0  0  0  0  0  0  0  0  0  0  0
    5.3540    5.6950   15.9630 C   0  0  0  0  0  0  0  0  0  0  0  0
    8.6850    5.2810   15.3650 H   0  0  0  0  0  0  0  0  0  0  0  0
    7.7970    3.4880   13.9140 H   0  0  0  0  0  0  0  0  0  0  0  0
    5.3540    3.0960   13.7670 H   0  0  0  0  0  0  0  0  0  0  0  0
    3.7890    4.5070   15.0750 H   0  0  0  0  0  0  0  0  0  0  0  0
    4.6550    6.3050   16.5310 H   0  0  0  0  0  0  0  0  0  0  0  0
    6.2130    5.2310   19.2770 C   0  0  0  0  0  0  0  0  0  0  0  0
    5.8420    3.8960   19.2160 C   0  0  0  0  0  0  0  0  0  0  0  0
    4.4350    3.8310   19.3400 C   0  0  0  0  0  0  0  0  0  0  0  0
    3.5100    2.7200   19.3840 C   0  0  0  0  0  0  0  0  0  0  0  0
    3.8550    1.5470   19.2940 O   0  0  0  0  0  0  0  0  0  0  0  0
    2.1850    3.1070   19.5470 N   0  0  0  0  0  0  0  0  0  0  0  0
    1.7000    4.4050   19.6210 N   0  0  0  0  0  0  0  0  0  0  0  0
    2.5490    5.3970   19.5430 C   0  0  0  0  0  0  0  0  0  0  0  0
    3.9610    5.1210   19.4280 C   0  0  0  0  0  0  0  0  0  0  0  0
    5.0440    5.9570   19.4210 N   0  0  0  0  0  0  0  0  0  0  0  0
    6.5060    3.0470   19.1050 H   0  0  0  0  0  0  0  0  0  0  0  0
    1.4910    2.3670   19.5800 H   0  0  0  0  0  0  0  0  0  0  0  0
    5.0290    6.9660   19.4980 H   0  0  0  0  0  0  0  0  0  0  0  0
    2.0390    6.7900   19.5800 C   0  0  0  0  0  0  0  0  0  0  0  0
    1.5720    7.3590   20.7740 C   0  0  0  0  0  0  0  0  0  0  0  0
    1.1120    8.6790   20.7810 C   0  0  0  0  0  0  0  0  0  0  0  0
    1.1370    9.4210   19.6050 C   0  0  0  0  0  0  0  0  0  0  0  0
    0.6980   10.6850   19.6150 F   0  0  0  0  0  0  0  0  0  0  0  0
    1.6190    8.8740   18.4190 C   0  0  0  0  0  0  0  0  0  0  0  0
    2.0780    7.5540   18.4060 C   0  0  0  0  0  0  0  0  0  0  0  0
    1.5910    6.8010   21.7070 H   0  0  0  0  0  0  0  0  0  0  0  0
    0.7500    9.1360   21.6970 H   0  0  0  0  0  0  0  0  0  0  0  0
    1.6420    9.4740   17.5150 H   0  0  0  0  0  0  0  0  0  0  0  0
    2.4650    7.1270   17.4830 H   0  0  0  0  0  0  0  0  0  0  0  0
  2 28  1  0  0  0  0
  2  1  2  0  0  0  0
  3 12  1  0  0  0  0
  3  2  1  0  0  0  0
  4  3  2  0  0  0  0
  5  4  1  0  0  0  0
  5  6  1  0  0  0  0
  6 12  1  0  0  0  0
  7  6  2  0  0  0  0
  7  8  1  0  0  0  0
  8  9  2  0  0  0  0
  9 11  1  0  0  0  0
  9 10  1  0  0  0  0
 11 16  1  0  0  0  0
 12 11  2  0  0  0  0
 13  5  1  0  0  0  0
 14  7  1  0  0  0  0
 15  8  1  0  0  0  0
 17  4  1  0  0  0  0
 18 23  1  0  0  0  0
 18 17  2  0  0  0  0
 19 18  1  0  0  0  0
 20 19  2  0  0  0  0
 20 21  1  0  0  0  0
 21 22  2  0  0  0  0
 22 17  1  0  0  0  0
 22 27  1  0  0  0  0
 24 19  1  0  0  0  0
 25 20  1  0  0  0  0
 26 21  1  0  0  0  0
 28 37  1  0  0  0  0
 29 28  2  0  0  0  0
 29 30  1  0  0  0  0
 30 31  1  0  0  0  0
 30 36  2  0  0  0  0
 31 33  1  0  0  0  0
 32 31  2  0  0  0  0
 33 39  1  0  0  0  0
 33 34  1  0  0  0  0
 35 41  1  0  0  0  0
 35 34  2  0  0  0  0
 36 35  1  0  0  0  0
 37 36  1  0  0  0  0
 37 40  1  0  0  0  0
 38 29  1  0  0  0  0
 41 42  1  0  0  0  0
 42 43  2  0  0  0  0
 42 48  1  0  0  0  0
 43 49  1  0  0  0  0
 44 45  1  0  0  0  0
 44 43  1  0  0  0  0
 46 44  2  0  0  0  0
 47 46  1  0  0  0  0
 47 41  2  0  0  0  0
 50 46  1  0  0  0  0
 51 47  1  0  0  0  0
M  END
>  <MODEL>
16

>  <REMARK>
 VINA RESULT:   -10.257      4.666      8.038
 INTER + INTRA:          -8.654
 INTER:                  -6.822
 INTRA:                  -1.832
 UNBOUND:                 4.002
  Name = 
  4 active torsions:
  status: ('A' for Active; 'I' for Inactive)
    1  A    between atoms: C_2  and  C_3
    2  A    between atoms: C_2  and  C_20
    3  A    between atoms: C_10  and  C_11
    4  A    between atoms: C_21  and  C_22
                            x       y       z     vdW  Elec       q    Type
                         _______ _______ _______ _____ _____    ______ ____

>  <TORSDO>
F 4

$$$$
=
 OpenBabel07192307433D

 51 56  0  0  0  0  0  0  0  0999 V2000
   -0.0300   11.1040   21.9820 O   0  0  0  0  0  0  0  0  0  0  0  0
   -0.2510   12.0530   21.2370 C   0  0  0  0  0  0  0  0  0  0  0  0
   -1.6070   12.4310   20.8570 C   0  0  0  0  0  0  0  0  0  0  0  0
   -2.4740   13.2540   21.5740 C   0  0  0  0  0  0  0  0  0  0  0  0
   -3.6360   13.3490   20.8440 N   0  0  0  0  0  0  0  0  0  0  0  0
   -3.5660   12.5880   19.7030 C   0  0  0  0  0  0  0  0  0  0  0  0
   -4.5150   12.3850   18.6950 C   0  0  0  0  0  0  0  0  0  0  0  0
   -4.1680   11.5370   17.6400 C   0  0  0  0  0  0  0  0  0  0  0  0
   -2.9210   10.9180   17.6060 C   0  0  0  0  0  0  0  0  0  0  0  0
   -2.4840    9.7750   16.1610 Br  0  0  0  0  0  0  0  0  0  0  0  0
   -1.9820   11.1280   18.6190 C   0  0  0  0  0  0  0  0  0  0  0  0
   -2.3100   11.9820   19.6920 C   0  0  0  0  0  0  0  0  0  0  0  0
   -4.4480   13.8810   21.1290 H   0  0  0  0  0  0  0  0  0  0  0  0
   -5.4890   12.8650   18.7240 H   0  0  0  0  0  0  0  0  0  0  0  0
   -4.8870   11.3650   16.8430 H   0  0  0  0  0  0  0  0  0  0  0  0
   -1.0120   10.6390   18.5890 H   0  0  0  0  0  0  0  0  0  0  0  0
   -2.3250   13.9110   22.8700 C   0  0  0  0  0  0  0  0  0  0  0  0
   -1.1670   14.6380   23.1700 C   0  0  0  0  0  0  0  0  0  0  0  0
   -1.0210   15.2500   24.4190 C   0  0  0  0  0  0  0  0  0  0  0  0
   -2.0360   15.1470   25.3690 C   0  0  0  0  0  0  0  0  0  0  0  0
   -3.1930   14.4280   25.0760 C   0  0  0  0  0  0  0  0  0  0  0  0
   -3.3380   13.8110   23.8320 C   0  0  0  0  0  0  0  0  0  0  0  0
   -0.3560   14.7130   22.4470 H   0  0  0  0  0  0  0  0  0  0  0  0
   -0.1110   15.7970   24.6550 H   0  0  0  0  0  0  0  0  0  0  0  0
   -1.9200   15.6200   26.3410 H   0  0  0  0  0  0  0  0  0  0  0  0
   -3.9840   14.3480   25.8180 H   0  0  0  0  0  0  0  0  0  0  0  0
   -4.2500   13.2570   23.6180 H   0  0  0  0  0  0  0  0  0  0  0  0
    0.8290   12.8270   20.6490 C   0  0  0  0  0  0  0  0  0  0  0  0
    1.0510   13.2970   19.3630 C   0  0  0  0  0  0  0  0  0  0  0  0
    2.2860   13.9850   19.3600 C   0  0  0  0  0  0  0  0  0  0  0  0
    2.9990   14.7040   18.3280 C   0  0  0  0  0  0  0  0  0  0  0  0
    2.5930   14.8160   17.1750 O   0  0  0  0  0  0  0  0  0  0  0  0
    4.1920   15.2660   18.7650 N   0  0  0  0  0  0  0  0  0  0  0  0
    4.7460   15.1600   20.0330 N   0  0  0  0  0  0  0  0  0  0  0  0
    4.1030   14.4750   20.9430 C   0  0  0  0  0  0  0  0  0  0  0  0
    2.8230   13.8880   20.6240 C   0  0  0  0  0  0  0  0  0  0  0  0
    1.9220   13.2150   21.4030 N   0  0  0  0  0  0  0  0  0  0  0  0
    0.3940   13.1720   18.5090 H   0  0  0  0  0  0  0  0  0  0  0  0
    4.7370   15.7790   18.0800 H   0  0  0  0  0  0  0  0  0  0  0  0
    2.0130   13.0060   22.3890 H   0  0  0  0  0  0  0  0  0  0  0  0
    4.7040   14.3200   22.2910 C   0  0  0  0  0  0  0  0  0  0  0  0
    5.6030   13.2800   22.5690 C   0  0  0  0  0  0  0  0  0  0  0  0
    6.1650   13.1690   23.8430 C   0  0  0  0  0  0  0  0  0  0  0  0
    5.8390   14.1030   24.8210 C   0  0  0  0  0  0  0  0  0  0  0  0
    6.3810   13.9950   26.0400 F   0  0  0  0  0  0  0  0  0  0  0  0
    4.9660   15.1520   24.5510 C   0  0  0  0  0  0  0  0  0  0  0  0
    4.4000   15.2670   23.2790 C   0  0  0  0  0  0  0  0  0  0  0  0
    5.8980   12.5720   21.7970 H   0  0  0  0  0  0  0  0  0  0  0  0
    6.8640   12.3710   24.0740 H   0  0  0  0  0  0  0  0  0  0  0  0
    4.7350   15.8780   25.3240 H   0  0  0  0  0  0  0  0  0  0  0  0
    3.7240   16.0920   23.0620 H   0  0  0  0  0  0  0  0  0  0  0  0
  2  1  2  0  0  0  0
  3  2  1  0  0  0  0
  3  4  2  0  0  0  0
  4 17  1  0  0  0  0
  5 13  1  0  0  0  0
  5  4  1  0  0  0  0
  6  5  1  0  0  0  0
  7 14  1  0  0  0  0
  7  6  2  0  0  0  0
  8  7  1  0  0  0  0
  9  8  2  0  0  0  0
  9 11  1  0  0  0  0
 10  9  1  0  0  0  0
 11 12  2  0  0  0  0
 12  6  1  0  0  0  0
 12  3  1  0  0  0  0
 15  8  1  0  0  0  0
 16 11  1  0  0  0  0
 17 18  2  0  0  0  0
 17 22  1  0  0  0  0
 18 19  1  0  0  0  0
 19 24  1  0  0  0  0
 19 20  2  0  0  0  0
 20 25  1  0  0  0  0
 21 20  1  0  0  0  0
 21 26  1  0  0  0  0
 22 21  2  0  0  0  0
 23 18  1  0  0  0  0
 27 22  1  0  0  0  0
 28  2  1  0  0  0  0
 28 37  1  0  0  0  0
 29 28  2  0  0  0  0
 30 29  1  0  0  0  0
 30 36  2  0  0  0  0
 31 33  1  0  0  0  0
 31 30  1  0  0  0  0
 32 31  2  0  0  0  0
 33 34  1  0  0  0  0
 34 35  2  0  0  0  0
 35 41  1  0  0  0  0
 36 35  1  0  0  0  0
 36 37  1  0  0  0  0
 37 40  1  0  0  0  0
 38 29  1  0  0  0  0
 39 33  1  0  0  0  0
 41 42  2  0  0  0  0
 41 47  1  0  0  0  0
 42 43  1  0  0  0  0
 43 49  1  0  0  0  0
 43 44  2  0  0  0  0
 44 45  1  0  0  0  0
 46 44  1  0  0  0  0
 46 50  1  0  0  0  0
 47 46  2  0  0  0  0
 48 42  1  0  0  0  0
 51 47  1  0  0  0  0
M  END
>  <MODEL>
17

>  <REMARK>
 VINA RESULT:   -10.059      5.022      7.394
 INTER + INTRA:          -8.410
 INTER:                  -6.834
 INTRA:                  -1.576
 UNBOUND:                 4.002
  Name = 
  4 active torsions:
  status: ('A' for Active; 'I' for Inactive)
    1  A    between atoms: C_2  and  C_3
    2  A    between atoms: C_2  and  C_20
    3  A    between atoms: C_10  and  C_11
    4  A    between atoms: C_21  and  C_22
                            x       y       z     vdW  Elec       q    Type
                         _______ _______ _______ _____ _____    ______ ____

>  <TORSDO>
F 4

$$$$
=
 OpenBabel07192307433D

 51 56  0  0  0  0  0  0  0  0999 V2000
   -1.1120   11.2920   22.6260 O   0  0  0  0  0  0  0  0  0  0  0  0
   -1.2630   11.6200   21.4540 C   0  0  0  0  0  0  0  0  0  0  0  0
   -2.5300   12.1470   20.9610 C   0  0  0  0  0  0  0  0  0  0  0  0
   -3.4140   12.9730   21.6530 C   0  0  0  0  0  0  0  0  0  0  0  0
   -4.4680   13.2350   20.8080 N   0  0  0  0  0  0  0  0  0  0  0  0
   -4.3150   12.5770   19.6120 C   0  0  0  0  0  0  0  0  0  0  0  0
   -5.1470   12.5500   18.4870 C   0  0  0  0  0  0  0  0  0  0  0  0
   -4.7380   11.7740   17.3980 C   0  0  0  0  0  0  0  0  0  0  0  0
   -3.5460   11.0550   17.4450 C   0  0  0  0  0  0  0  0  0  0  0  0
   -3.0230   10.0150   15.9530 Br  0  0  0  0  0  0  0  0  0  0  0  0
   -2.7250   11.0900   18.5760 C   0  0  0  0  0  0  0  0  0  0  0  0
   -3.1170   11.8680   19.6840 C   0  0  0  0  0  0  0  0  0  0  0  0
   -5.2660   13.8060   21.0500 H   0  0  0  0  0  0  0  0  0  0  0  0
   -6.0780   13.1080   18.4530 H   0  0  0  0  0  0  0  0  0  0  0  0
   -5.3650   11.7380   16.5110 H   0  0  0  0  0  0  0  0  0  0  0  0
   -1.7980   10.5240   18.6080 H   0  0  0  0  0  0  0  0  0  0  0  0
   -3.3760   13.4940   23.0180 C   0  0  0  0  0  0  0  0  0  0  0  0
   -2.6760   14.6710   23.3100 C   0  0  0  0  0  0  0  0  0  0  0  0
   -2.6270   15.1560   24.6210 C   0  0  0  0  0  0  0  0  0  0  0  0
   -3.2860   14.4730   25.6420 C   0  0  0  0  0  0  0  0  0  0  0  0
   -3.9890   13.3040   25.3580 C   0  0  0  0  0  0  0  0  0  0  0  0
   -4.0330   12.8150   24.0510 C   0  0  0  0  0  0  0  0  0  0  0  0
   -2.1390   15.2060   22.5290 H   0  0  0  0  0  0  0  0  0  0  0  0
   -2.0650   16.0590   24.8480 H   0  0  0  0  0  0  0  0  0  0  0  0
   -3.2450   14.8490   26.6610 H   0  0  0  0  0  0  0  0  0  0  0  0
   -4.5030   12.7720   26.1550 H   0  0  0  0  0  0  0  0  0  0  0  0
   -4.5900   11.9020   23.8450 H   0  0  0  0  0  0  0  0  0  0  0  0
   -0.2020   11.4570   20.4750 C   0  0  0  0  0  0  0  0  0  0  0  0
    0.4150   12.3460   19.6070 C   0  0  0  0  0  0  0  0  0  0  0  0
    1.3820   11.6280   18.8660 C   0  0  0  0  0  0  0  0  0  0  0  0
    2.3380   12.0340   17.8600 C   0  0  0  0  0  0  0  0  0  0  0  0
    2.4450   13.1860   17.4510 O   0  0  0  0  0  0  0  0  0  0  0  0
    3.1360   10.9930   17.3990 N   0  0  0  0  0  0  0  0  0  0  0  0
    3.0610    9.6590   17.7750 N   0  0  0  0  0  0  0  0  0  0  0  0
    2.1650    9.3060   18.6600 C   0  0  0  0  0  0  0  0  0  0  0  0
    1.3120   10.3080   19.2530 C   0  0  0  0  0  0  0  0  0  0  0  0
    0.3760   10.2210   20.2470 N   0  0  0  0  0  0  0  0  0  0  0  0
    0.2070   13.4060   19.5150 H   0  0  0  0  0  0  0  0  0  0  0  0
    3.8220   11.2210   16.6880 H   0  0  0  0  0  0  0  0  0  0  0  0
    0.1130    9.3870   20.7570 H   0  0  0  0  0  0  0  0  0  0  0  0
    2.0480    7.8760   19.0390 C   0  0  0  0  0  0  0  0  0  0  0  0
    2.3500    6.8560   18.1240 C   0  0  0  0  0  0  0  0  0  0  0  0
    2.2460    5.5190   18.5160 C   0  0  0  0  0  0  0  0  0  0  0  0
    1.8580    5.2120   19.8160 C   0  0  0  0  0  0  0  0  0  0  0  0
    1.7610    3.9300   20.1880 F   0  0  0  0  0  0  0  0  0  0  0  0
    1.5780    6.2150   20.7390 C   0  0  0  0  0  0  0  0  0  0  0  0
    1.6790    7.5540   20.3520 C   0  0  0  0  0  0  0  0  0  0  0  0
    2.6980    7.0880   17.1200 H   0  0  0  0  0  0  0  0  0  0  0  0
    2.4780    4.7180   17.8210 H   0  0  0  0  0  0  0  0  0  0  0  0
    1.2900    5.9550   21.7520 H   0  0  0  0  0  0  0  0  0  0  0  0
    1.4700    8.3410   21.0740 H   0  0  0  0  0  0  0  0  0  0  0  0
  2  1  2  0  0  0  0
  3  2  1  0  0  0  0
  3  4  2  0  0  0  0
  4 17  1  0  0  0  0
  5 13  1  0  0  0  0
  5  4  1  0  0  0  0
  6 12  1  0  0  0  0
  6  5  1  0  0  0  0
  7  6  2  0  0  0  0
  8  9  2  0  0  0  0
  8  7  1  0  0  0  0
  9 11  1  0  0  0  0
 10  9  1  0  0  0  0
 11 16  1  0  0  0  0
 11 12  2  0  0  0  0
 12  3  1  0  0  0  0
 14  7  1  0  0  0  0
 15  8  1  0  0  0  0
 17 18  2  0  0  0  0
 17 22  1  0  0  0  0
 18 19  1  0  0  0  0
 19 24  1  0  0  0  0
 19 20  2  0  0  0  0
 20 25  1  0  0  0  0
 21 20  1  0  0  0  0
 21 26  1  0  0  0  0
 22 21  2  0  0  0  0
 23 18  1  0  0  0  0
 27 22  1  0  0  0  0
 28  2  1  0  0  0  0
 29 28  2  0  0  0  0
 30 36  2  0  0  0  0
 30 29  1  0  0  0  0
 31 30  1  0  0  0  0
 32 31  2  0  0  0  0
 33 34  1  0  0  0  0
 33 31  1  0  0  0  0
 34 35  2  0  0  0  0
 35 41  1  0  0  0  0
 35 36  1  0  0  0  0
 36 37  1  0  0  0  0
 37 28  1  0  0  0  0
 37 40  1  0  0  0  0
 38 29  1  0  0  0  0
 39 33  1  0  0  0  0
 41 47  1  0  0  0  0
 42 43  1  0  0  0  0
 42 41  2  0  0  0  0
 43 44  2  0  0  0  0
 44 45  1  0  0  0  0
 44 46  1  0  0  0  0
 46 50  1  0  0  0  0
 47 46  2  0  0  0  0
 47 51  1  0  0  0  0
 48 42  1  0  0  0  0
 49 43  1  0  0  0  0
M  END
>  <MODEL>
18

>  <REMARK>
 VINA RESULT:    -9.939      3.568      7.668
 INTER + INTRA:          -8.261
 INTER:                  -7.560
 INTRA:                  -0.701
 UNBOUND:                 4.002
  Name = 
  4 active torsions:
  status: ('A' for Active; 'I' for Inactive)
    1  A    between atoms: C_2  and  C_3
    2  A    between atoms: C_2  and  C_20
    3  A    between atoms: C_10  and  C_11
    4  A    between atoms: C_21  and  C_22
                            x       y       z     vdW  Elec       q    Type
                         _______ _______ _______ _____ _____    ______ ____

>  <TORSDO>
F 4

$$$$
=
 OpenBabel07192307433D

 51 56  0  0  0  0  0  0  0  0999 V2000
    0.1720    9.2790   21.2600 O   0  0  0  0  0  0  0  0  0  0  0  0
    0.0740    9.7440   20.1300 C   0  0  0  0  0  0  0  0  0  0  0  0
    1.1890    9.7220   19.1900 C   0  0  0  0  0  0  0  0  0  0  0  0
    1.8100   10.8250   18.6080 C   0  0  0  0  0  0  0  0  0  0  0  0
    2.8160   10.3430   17.8030 N   0  0  0  0  0  0  0  0  0  0  0  0
    2.8420    8.9700   17.8140 C   0  0  0  0  0  0  0  0  0  0  0  0
    3.6810    8.0790   17.1360 C   0  0  0  0  0  0  0  0  0  0  0  0
    3.4680    6.7110   17.3320 C   0  0  0  0  0  0  0  0  0  0  0  0
    2.4510    6.2640   18.1720 C   0  0  0  0  0  0  0  0  0  0  0  0
    2.1910    4.4040   18.4150 Br  0  0  0  0  0  0  0  0  0  0  0  0
    1.6190    7.1640   18.8430 C   0  0  0  0  0  0  0  0  0  0  0  0
    1.8190    8.5480   18.6610 C   0  0  0  0  0  0  0  0  0  0  0  0
    3.4320   10.9230   17.2480 H   0  0  0  0  0  0  0  0  0  0  0  0
    4.4710    8.4290   16.4780 H   0  0  0  0  0  0  0  0  0  0  0  0
    4.1080    5.9990   16.8190 H   0  0  0  0  0  0  0  0  0  0  0  0
    0.8260    6.8090   19.4940 H   0  0  0  0  0  0  0  0  0  0  0  0
    1.5240   12.2540   18.7080 C   0  0  0  0  0  0  0  0  0  0  0  0
    0.3830   12.7950   18.1020 C   0  0  0  0  0  0  0  0  0  0  0  0
    0.1230   14.1660   18.1860 C   0  0  0  0  0  0  0  0  0  0  0  0
    0.9950   15.0000   18.8830 C   0  0  0  0  0  0  0  0  0  0  0  0
    2.1300   14.4690   19.4920 C   0  0  0  0  0  0  0  0  0  0  0  0
    2.3950   13.1010   19.4050 C   0  0  0  0  0  0  0  0  0  0  0  0
   -0.2980   12.1610   17.5380 H   0  0  0  0  0  0  0  0  0  0  0  0
   -0.7530   14.5860   17.6970 H   0  0  0  0  0  0  0  0  0  0  0  0
    0.7940   16.0670   18.9440 H   0  0  0  0  0  0  0  0  0  0  0  0
    2.8100   15.1200   20.0360 H   0  0  0  0  0  0  0  0  0  0  0  0
    3.2830   12.7010   19.8890 H   0  0  0  0  0  0  0  0  0  0  0  0
   -1.1460   10.3890   19.6760 C   0  0  0  0  0  0  0  0  0  0  0  0
   -1.8270   10.3580   18.4670 C   0  0  0  0  0  0  0  0  0  0  0  0
   -2.9590   11.1980   18.5860 C   0  0  0  0  0  0  0  0  0  0  0  0
   -4.0350   11.5180   17.6740 C   0  0  0  0  0  0  0  0  0  0  0  0
   -4.1160   11.0670   16.5360 O   0  0  0  0  0  0  0  0  0  0  0  0
   -4.9790   12.3840   18.2120 N   0  0  0  0  0  0  0  0  0  0  0  0
   -4.9500   12.9710   19.4690 N   0  0  0  0  0  0  0  0  0  0  0  0
   -3.9490   12.6960   20.2660 C   0  0  0  0  0  0  0  0  0  0  0  0
   -2.9310   11.7650   19.8400 C   0  0  0  0  0  0  0  0  0  0  0  0
   -1.8510   11.2460   20.5010 N   0  0  0  0  0  0  0  0  0  0  0  0
   -1.5530    9.7860   17.5880 H   0  0  0  0  0  0  0  0  0  0  0  0
   -5.7550   12.6470   17.6140 H   0  0  0  0  0  0  0  0  0  0  0  0
   -1.5740   11.4460   21.4540 H   0  0  0  0  0  0  0  0  0  0  0  0
   -3.8840   13.3480   21.5970 C   0  0  0  0  0  0  0  0  0  0  0  0
   -4.2800   14.6830   21.7710 C   0  0  0  0  0  0  0  0  0  0  0  0
   -4.2240   15.2640   23.0400 C   0  0  0  0  0  0  0  0  0  0  0  0
   -3.7890   14.5090   24.1240 C   0  0  0  0  0  0  0  0  0  0  0  0
   -3.7370   15.0690   25.3380 F   0  0  0  0  0  0  0  0  0  0  0  0
   -3.4150   13.1770   23.9670 C   0  0  0  0  0  0  0  0  0  0  0  0
   -3.4680   12.5910   22.7000 C   0  0  0  0  0  0  0  0  0  0  0  0
   -4.6650   15.2670   20.9380 H   0  0  0  0  0  0  0  0  0  0  0  0
   -4.5290   16.2950   23.1920 H   0  0  0  0  0  0  0  0  0  0  0  0
   -3.0910   12.6010   24.8280 H   0  0  0  0  0  0  0  0  0  0  0  0
   -3.1850   11.5470   22.5770 H   0  0  0  0  0  0  0  0  0  0  0  0
  2  1  2  0  0  0  0
  3  2  1  0  0  0  0
  4 17  1  0  0  0  0
  4  3  2  0  0  0  0
  5  6  1  0  0  0  0
  5  4  1  0  0  0  0
  6 12  1  0  0  0  0
  7  8  1  0  0  0  0
  7  6  2  0  0  0  0
  8  9  2  0  0  0  0
  9 10  1  0  0  0  0
  9 11  1  0  0  0  0
 11 16  1  0  0  0  0
 12 11  2  0  0  0  0
 12  3  1  0  0  0  0
 13  5  1  0  0  0  0
 14  7  1  0  0  0  0
 15  8  1  0  0  0  0
 17 22  1  0  0  0  0
 18 19  1  0  0  0  0
 18 17  2  0  0  0  0
 19 20  2  0  0  0  0
 20 25  1  0  0  0  0
 20 21  1  0  0  0  0
 21 26  1  0  0  0  0
 22 21  2  0  0  0  0
 22 27  1  0  0  0  0
 23 18  1  0  0  0  0
 24 19  1  0  0  0  0
 28  2  1  0  0  0  0
 28 37  1  0  0  0  0
 29 30  1  0  0  0  0
 29 28  2  0  0  0  0
 30 36  2  0  0  0  0
 31 33  1  0  0  0  0
 31 30  1  0  0  0  0
 32 31  2  0  0  0  0
 33 34  1  0  0  0  0
 34 35  2  0  0  0  0
 35 41  1  0  0  0  0
 36 35  1  0  0  0  0
 36 37  1  0  0  0  0
 37 40  1  0  0  0  0
 38 29  1  0  0  0  0
 39 33  1  0  0  0  0
 41 42  2  0  0  0  0
 41 47  1  0  0  0  0
 42 43  1  0  0  0  0
 43 49  1  0  0  0  0
 43 44  2  0  0  0  0
 44 45  1  0  0  0  0
 46 44  1  0  0  0  0
 46 50  1  0  0  0  0
 47 46  2  0  0  0  0
 48 42  1  0  0  0  0
 51 47  1  0  0  0  0
M  END
>  <MODEL>
19

>  <REMARK>
 VINA RESULT:    -9.905      2.444      3.740
 INTER + INTRA:          -8.220
 INTER:                  -7.147
 INTRA:                  -1.073
 UNBOUND:                 4.002
  Name = 
  4 active torsions:
  status: ('A' for Active; 'I' for Inactive)
    1  A    between atoms: C_2  and  C_3
    2  A    between atoms: C_2  and  C_20
    3  A    between atoms: C_10  and  C_11
    4  A    between atoms: C_21  and  C_22
                            x       y       z     vdW  Elec       q    Type
                         _______ _______ _______ _____ _____    ______ ____

>  <TORSDO>
F 4

$$$$
=
 OpenBabel07192307433D

 51 56  0  0  0  0  0  0  0  0999 V2000
    1.8820    8.6620   17.0900 O   0  0  0  0  0  0  0  0  0  0  0  0
    1.8290    9.2560   18.1610 C   0  0  0  0  0  0  0  0  0  0  0  0
    1.7060    8.5450   19.4280 C   0  0  0  0  0  0  0  0  0  0  0  0
    2.1420    7.2500   19.7030 C   0  0  0  0  0  0  0  0  0  0  0  0
    1.8350    6.9910   21.0180 N   0  0  0  0  0  0  0  0  0  0  0  0
    1.1820    8.0550   21.5910 C   0  0  0  0  0  0  0  0  0  0  0  0
    0.6810    8.2130   22.8880 C   0  0  0  0  0  0  0  0  0  0  0  0
    0.0440    9.4190   23.1940 C   0  0  0  0  0  0  0  0  0  0  0  0
   -0.0840   10.4190   22.2340 C   0  0  0  0  0  0  0  0  0  0  0  0
   -0.9530   12.0400   22.6830 Br  0  0  0  0  0  0  0  0  0  0  0  0
    0.4190   10.2490   20.9420 C   0  0  0  0  0  0  0  0  0  0  0  0
    1.0680    9.0410   20.6120 C   0  0  0  0  0  0  0  0  0  0  0  0
    2.0310    6.1180   21.4900 H   0  0  0  0  0  0  0  0  0  0  0  0
    0.7780    7.4310   23.6360 H   0  0  0  0  0  0  0  0  0  0  0  0
   -0.3510    9.5670   24.1960 H   0  0  0  0  0  0  0  0  0  0  0  0
    0.3130   11.0310   20.1950 H   0  0  0  0  0  0  0  0  0  0  0  0
    2.7710    6.2460   18.8490 C   0  0  0  0  0  0  0  0  0  0  0  0
    4.1310    6.3380   18.5250 C   0  0  0  0  0  0  0  0  0  0  0  0
    4.7240    5.3840   17.6930 C   0  0  0  0  0  0  0  0  0  0  0  0
    3.9650    4.3290   17.1890 C   0  0  0  0  0  0  0  0  0  0  0  0
    2.6130    4.2280   17.5100 C   0  0  0  0  0  0  0  0  0  0  0  0
    2.0170    5.1830   18.3360 C   0  0  0  0  0  0  0  0  0  0  0  0
    4.7340    7.1660   18.8940 H   0  0  0  0  0  0  0  0  0  0  0  0
    5.7750    5.4700   17.4270 H   0  0  0  0  0  0  0  0  0  0  0  0
    4.4270    3.5900   16.5390 H   0  0  0  0  0  0  0  0  0  0  0  0
    2.0220    3.4050   17.1170 H   0  0  0  0  0  0  0  0  0  0  0  0
    0.9610    5.0880   18.5810 H   0  0  0  0  0  0  0  0  0  0  0  0
    1.8380   10.7070   18.2280 C   0  0  0  0  0  0  0  0  0  0  0  0
    2.8310   11.6490   17.9970 C   0  0  0  0  0  0  0  0  0  0  0  0
    2.2760   12.9290   18.2280 C   0  0  0  0  0  0  0  0  0  0  0  0
    2.8210   14.2630   18.1090 C   0  0  0  0  0  0  0  0  0  0  0  0
    3.9760   14.4960   17.7670 O   0  0  0  0  0  0  0  0  0  0  0  0
    1.9070   15.2650   18.4120 N   0  0  0  0  0  0  0  0  0  0  0  0
    0.5980   15.0960   18.8400 N   0  0  0  0  0  0  0  0  0  0  0  0
    0.1360   13.8800   18.9760 C   0  0  0  0  0  0  0  0  0  0  0  0
    0.9740   12.7540   18.6390 C   0  0  0  0  0  0  0  0  0  0  0  0
    0.7090   11.4120   18.6050 N   0  0  0  0  0  0  0  0  0  0  0  0
    3.8490   11.4470   17.6860 H   0  0  0  0  0  0  0  0  0  0  0  0
    2.2370   16.2220   18.3490 H   0  0  0  0  0  0  0  0  0  0  0  0
   -0.1710   10.9640   18.8260 H   0  0  0  0  0  0  0  0  0  0  0  0
   -1.2490   13.6840   19.4730 C   0  0  0  0  0  0  0  0  0  0  0  0
   -1.9740   12.5240   19.1630 C   0  0  0  0  0  0  0  0  0  0  0  0
   -3.2700   12.3610   19.6590 C   0  0  0  0  0  0  0  0  0  0  0  0
   -3.8250   13.3470   20.4680 C   0  0  0  0  0  0  0  0  0  0  0  0
   -5.0660   13.1870   20.9420 F   0  0  0  0  0  0  0  0  0  0  0  0
   -3.1080   14.4920   20.8000 C   0  0  0  0  0  0  0  0  0  0  0  0
   -1.8120   14.6610   20.3060 C   0  0  0  0  0  0  0  0  0  0  0  0
   -1.5310   11.7270   18.5690 H   0  0  0  0  0  0  0  0  0  0  0  0
   -3.8430   11.4680   19.4300 H   0  0  0  0  0  0  0  0  0  0  0  0
   -3.5540   15.2430   21.4440 H   0  0  0  0  0  0  0  0  0  0  0  0
   -1.2450   15.5510   20.5710 H   0  0  0  0  0  0  0  0  0  0  0  0
  1  2  2  0  0  0  0
  2 28  1  0  0  0  0
  2  3  1  0  0  0  0
  3  4  2  0  0  0  0
  3 12  1  0  0  0  0
  4  5  1  0  0  0  0
  5 13  1  0  0  0  0
  5  6  1  0  0  0  0
  6  7  1  0  0  0  0
  7  8  2  0  0  0  0
  7 14  1  0  0  0  0
  8 15  1  0  0  0  0
  9 10  1  0  0  0  0
  9  8  1  0  0  0  0
 11  9  2  0  0  0  0
 12 11  1  0  0  0  0
 12  6  2  0  0  0  0
 16 11  1  0  0  0  0
 17  4  1  0  0  0  0
 18 17  1  0  0  0  0
 18 23  1  0  0  0  0
 19 18  2  0  0  0  0
 20 21  2  0  0  0  0
 20 19  1  0  0  0  0
 21 22  1  0  0  0  0
 22 27  1  0  0  0  0
 22 17  2  0  0  0  0
 24 19  1  0  0  0  0
 25 20  1  0  0  0  0
 26 21  1  0  0  0  0
 28 37  1  0  0  0  0
 29 30  1  0  0  0  0
 29 28  2  0  0  0  0
 30 36  2  0  0  0  0
 31 30  1  0  0  0  0
 31 33  1  0  0  0  0
 32 31  2  0  0  0  0
 33 34  1  0  0  0  0
 34 35  2  0  0  0  0
 35 41  1  0  0  0  0
 36 35  1  0  0  0  0
 37 36  1  0  0  0  0
 37 40  1  0  0  0  0
 38 29  1  0  0  0  0
 39 33  1  0  0  0  0
 41 47  1  0  0  0  0
 42 41  2  0  0  0  0
 42 43  1  0  0  0  0
 43 44  2  0  0  0  0
 44 46  1  0  0  0  0
 44 45  1  0  0  0  0
 46 50  1  0  0  0  0
 47 51  1  0  0  0  0
 47 46  2  0  0  0  0
 48 42  1  0  0  0  0
 49 43  1  0  0  0  0
M  END
>  <MODEL>
20

>  <REMARK>
 VINA RESULT:    -9.898      3.110      5.418
 INTER + INTRA:          -8.211
 INTER:                  -8.425
 INTRA:                   0.214
 UNBOUND:                 4.002
  Name = 
  4 active torsions:
  status: ('A' for Active; 'I' for Inactive)
    1  A    between atoms: C_2  and  C_3
    2  A    between atoms: C_2  and  C_20
    3  A    between atoms: C_10  and  C_11
    4  A    between atoms: C_21  and  C_22
                            x       y       z     vdW  Elec       q    Type
                         _______ _______ _______ _____ _____    ______ ____

>  <TORSDO>
F 4

$$$$
=
 OpenBabel07192307433D

 51 56  0  0  0  0  0  0  0  0999 V2000
    2.2570    7.5040   17.3360 O   0  0  0  0  0  0  0  0  0  0  0  0
    2.7180    7.1500   18.4160 C   0  0  0  0  0  0  0  0  0  0  0  0
    1.9780    7.3280   19.6610 C   0  0  0  0  0  0  0  0  0  0  0  0
    1.5820    6.3260   20.5440 C   0  0  0  0  0  0  0  0  0  0  0  0
    0.9260    6.9420   21.5850 N   0  0  0  0  0  0  0  0  0  0  0  0
    0.8500    8.2990   21.3860 C   0  0  0  0  0  0  0  0  0  0  0  0
    0.2650    9.2940   22.1760 C   0  0  0  0  0  0  0  0  0  0  0  0
    0.3330   10.6120   21.7140 C   0  0  0  0  0  0  0  0  0  0  0  0
    0.9600   10.9100   20.5070 C   0  0  0  0  0  0  0  0  0  0  0  0
    1.0330   12.7060   19.9110 Br  0  0  0  0  0  0  0  0  0  0  0  0
    1.5400    9.9070   19.7260 C   0  0  0  0  0  0  0  0  0  0  0  0
    1.4860    8.5710   20.1750 C   0  0  0  0  0  0  0  0  0  0  0  0
    0.5210    6.4550   22.3730 H   0  0  0  0  0  0  0  0  0  0  0  0
   -0.2270    9.0600   23.1160 H   0  0  0  0  0  0  0  0  0  0  0  0
   -0.1130   11.4030   22.3110 H   0  0  0  0  0  0  0  0  0  0  0  0
    2.0250   10.1450   18.7840 H   0  0  0  0  0  0  0  0  0  0  0  0
    1.7260    4.8740   20.4800 C   0  0  0  0  0  0  0  0  0  0  0  0
    1.2180    4.1560   19.3890 C   0  0  0  0  0  0  0  0  0  0  0  0
    1.3430    2.7650   19.3400 C   0  0  0  0  0  0  0  0  0  0  0  0
    1.9850    2.0860   20.3740 C   0  0  0  0  0  0  0  0  0  0  0  0
    2.4980    2.7930   21.4600 C   0  0  0  0  0  0  0  0  0  0  0  0
    2.3680    4.1820   21.5140 C   0  0  0  0  0  0  0  0  0  0  0  0
    0.6970    4.6690   18.5830 H   0  0  0  0  0  0  0  0  0  0  0  0
    0.9290    2.2090   18.5020 H   0  0  0  0  0  0  0  0  0  0  0  0
    2.0790    1.0030   20.3370 H   0  0  0  0  0  0  0  0  0  0  0  0
    2.9980    2.2620   22.2660 H   0  0  0  0  0  0  0  0  0  0  0  0
    2.7770    4.7200   22.3670 H   0  0  0  0  0  0  0  0  0  0  0  0
    4.0470    6.5760   18.5250 C   0  0  0  0  0  0  0  0  0  0  0  0
    5.0090    6.6260   19.5250 C   0  0  0  0  0  0  0  0  0  0  0  0
    6.1320    5.8900   19.0820 C   0  0  0  0  0  0  0  0  0  0  0  0
    7.3960    5.5710   19.7080 C   0  0  0  0  0  0  0  0  0  0  0  0
    7.7120    5.9490   20.8310 O   0  0  0  0  0  0  0  0  0  0  0  0
    8.2240    4.7820   18.9170 N   0  0  0  0  0  0  0  0  0  0  0  0
    7.9670    4.3400   17.6270 N   0  0  0  0  0  0  0  0  0  0  0  0
    6.8320    4.6700   17.0650 C   0  0  0  0  0  0  0  0  0  0  0  0
    5.8650    5.4420   17.8080 C   0  0  0  0  0  0  0  0  0  0  0  0
    4.5930    5.8340   17.4930 N   0  0  0  0  0  0  0  0  0  0  0  0
    4.9180    7.1280   20.4810 H   0  0  0  0  0  0  0  0  0  0  0  0
    9.1270    4.5310   19.3050 H   0  0  0  0  0  0  0  0  0  0  0  0
    4.0940    5.6360   16.6350 H   0  0  0  0  0  0  0  0  0  0  0  0
    6.5630    4.2370   15.6710 C   0  0  0  0  0  0  0  0  0  0  0  0
    5.5920    3.2650   15.3890 C   0  0  0  0  0  0  0  0  0  0  0  0
    5.3490    2.8900   14.0650 C   0  0  0  0  0  0  0  0  0  0  0  0
    6.0640    3.4960   13.0370 C   0  0  0  0  0  0  0  0  0  0  0  0
    5.8280    3.1350   11.7700 F   0  0  0  0  0  0  0  0  0  0  0  0
    7.0130    4.4780   13.3040 C   0  0  0  0  0  0  0  0  0  0  0  0
    7.2610    4.8560   14.6250 C   0  0  0  0  0  0  0  0  0  0  0  0
    4.9960    2.8190   16.1820 H   0  0  0  0  0  0  0  0  0  0  0  0
    4.5990    2.1410   13.8290 H   0  0  0  0  0  0  0  0  0  0  0  0
    7.5510    4.9480   12.4860 H   0  0  0  0  0  0  0  0  0  0  0  0
    7.9970    5.6290   14.8360 H   0  0  0  0  0  0  0  0  0  0  0  0
  1  2  2  0  0  0  0
  2 28  1  0  0  0  0
  2  3  1  0  0  0  0
  3 12  1  0  0  0  0
  3  4  2  0  0  0  0
  4  5  1  0  0  0  0
  5 13  1  0  0  0  0
  6  5  1  0  0  0  0
  6  7  1  0  0  0  0
  7 14  1  0  0  0  0
  8  7  2  0  0  0  0
  8 15  1  0  0  0  0
  9  8  1  0  0  0  0
 10  9  1  0  0  0  0
 11 12  1  0  0  0  0
 11  9  2  0  0  0  0
 12  6  2  0  0  0  0
 16 11  1  0  0  0  0
 17  4  1  0  0  0  0
 17 22  1  0  0  0  0
 18 17  2  0  0  0  0
 19 18  1  0  0  0  0
 19 20  2  0  0  0  0
 20 21  1  0  0  0  0
 21 22  2  0  0  0  0
 21 26  1  0  0  0  0
 22 27  1  0  0  0  0
 23 18  1  0  0  0  0
 24 19  1  0  0  0  0
 25 20  1  0  0  0  0
 28 29  2  0  0  0  0
 29 38  1  0  0  0  0
 30 29  1  0  0  0  0
 30 31  1  0  0  0  0
 31 32  2  0  0  0  0
 33 39  1  0  0  0  0
 33 31  1  0  0  0  0
 34 33  1  0  0  0  0
 35 34  2  0  0  0  0
 35 36  1  0  0  0  0
 36 30  2  0  0  0  0
 37 36  1  0  0  0  0
 37 28  1  0  0  0  0
 40 37  1  0  0  0  0
 41 35  1  0  0  0  0
 42 41  1  0  0  0  0
 42 48  1  0  0  0  0
 43 42  2  0  0  0  0
 44 46  2  0  0  0  0
 44 43  1  0  0  0  0
 45 44  1  0  0  0  0
 46 47  1  0  0  0  0
 47 51  1  0  0  0  0
 47 41  2  0  0  0  0
 49 43  1  0  0  0  0
 50 46  1  0  0  0  0
M  END
>  <MODEL>
21

>  <REMARK>
 VINA RESULT:    -9.875      4.647      9.510
 INTER + INTRA:          -8.182
 INTER:                  -6.632
 INTRA:                  -1.551
 UNBOUND:                 4.002
  Name = 
  4 active torsions:
  status: ('A' for Active; 'I' for Inactive)
    1  A    between atoms: C_2  and  C_3
    2  A    between atoms: C_2  and  C_20
    3  A    between atoms: C_10  and  C_11
    4  A    between atoms: C_21  and  C_22
                            x       y       z     vdW  Elec       q    Type
                         _______ _______ _______ _____ _____    ______ ____

>  <TORSDO>
F 4

$$$$
