=
 OpenBabel07192307433D

 58 61  0  0  1  0  0  0  0  0999 V2000
    1.3730    7.8820   20.9630 N   0  0  0  0  0  0  0  0  0  0  0  0
    1.9820    7.6680   19.7410 C   0  0  0  0  0  0  0  0  0  0  0  0
    1.9810    8.4090   18.7650 O   0  0  0  0  0  0  0  0  0  0  0  0
    1.5240    7.1400   21.6410 H   0  0  0  0  0  0  0  0  0  0  0  0
   -0.5700   11.0280   20.6700 C   0  0  0  0  0  0  0  0  0  0  0  0
   -0.9730   11.2180   21.9980 C   0  0  0  0  0  0  0  0  0  0  0  0
   -0.6120   10.3050   22.9890 C   0  0  0  0  0  0  0  0  0  0  0  0
    0.1620    9.1860   22.6730 C   0  0  0  0  0  0  0  0  0  0  0  0
    0.5790    8.9710   21.3620 C   0  0  0  0  0  0  0  0  0  0  0  0
    0.2030    9.8880   20.3690 C   0  0  0  0  0  0  0  0  0  0  0  0
   -1.5770   12.0770   22.2840 H   0  0  0  0  0  0  0  0  0  0  0  0
   -0.9380   10.4630   24.0140 H   0  0  0  0  0  0  0  0  0  0  0  0
    0.4240    8.5050   23.4760 H   0  0  0  0  0  0  0  0  0  0  0  0
    0.5160    9.7180   19.3400 H   0  0  0  0  0  0  0  0  0  0  0  0
   -0.9430   11.9960   19.5600 C   0  0  2  0  0  0  0  0  0  0  0  0
   -0.4770   11.6030   18.6460 H   0  0  0  0  0  0  0  0  0  0  0  0
   -0.3450   13.4010   19.7020 C   0  0  0  0  0  0  0  0  0  0  0  0
   -0.9110   14.1760   19.1770 H   0  0  0  0  0  0  0  0  0  0  0  0
   -0.3310   13.6880   20.7600 H   0  0  0  0  0  0  0  0  0  0  0  0
    0.6890   13.4270   19.3440 H   0  0  0  0  0  0  0  0  0  0  0  0
   -2.7210   11.9480   19.1510 S   0  0  0  0  0  0  0  0  0  0  0  0
   -2.8290   11.1700   17.6160 C   0  0  0  0  0  0  0  0  0  0  0  0
   -1.9360   10.4060   17.0320 N   0  0  0  0  0  0  0  0  0  0  0  0
   -2.4730    9.9550   15.8470 N   0  0  0  0  0  0  0  0  0  0  0  0
   -3.6810   10.4580   15.7450 C   0  0  0  0  0  0  0  0  0  0  0  0
   -3.9380   11.2520   16.8220 N   0  0  0  0  0  0  0  0  0  0  0  0
   -4.3780   10.2860   14.9340 H   0  0  0  0  0  0  0  0  0  0  0  0
   -5.1450   11.9970   17.0490 C   0  0  0  0  0  0  0  0  0  0  0  0
   -4.8930   12.9900   17.4330 H   0  0  0  0  0  0  0  0  0  0  0  0
   -5.7510   11.4680   17.7890 H   0  0  0  0  0  0  0  0  0  0  0  0
   -5.6850   12.0930   16.1040 H   0  0  0  0  0  0  0  0  0  0  0  0
    2.7240    6.3650   19.6820 C   0  0  0  0  0  0  0  0  0  0  0  0
    3.9830    6.3070   19.1170 C   0  0  0  0  0  0  0  0  0  0  0  0
    4.6210    5.0730   19.1210 C   0  0  0  0  0  0  0  0  0  0  0  0
    3.9880    3.9380   19.6370 C   0  0  0  0  0  0  0  0  0  0  0  0
    2.7120    4.0750   20.1750 C   0  0  0  0  0  0  0  0  0  0  0  0
    2.0790    5.2850   20.2200 N   0  0  0  0  0  0  0  0  0  0  0  0
    4.4540    7.1840   18.6880 H   0  0  0  0  0  0  0  0  0  0  0  0
    4.4760    2.9670   19.5980 H   0  0  0  0  0  0  0  0  0  0  0  0
    5.9610    4.9630   18.5140 C   0  0  0  0  0  0  0  0  0  0  0  0
    6.9340    5.0250   19.2540 O   0  0  0  0  0  0  0  0  0  0  0  0
    6.0410    4.8000   17.1460 N   0  0  0  0  0  0  0  0  0  0  0  0
    7.3320    4.6690   16.4950 C   0  0  0  0  0  0  0  0  0  0  0  0
    6.9970    4.6450   15.0130 C   0  0  0  0  0  0  0  0  0  0  0  0
    5.6480    3.9350   14.9890 C   0  0  0  0  0  0  0  0  0  0  0  0
    4.9540    4.4750   16.2300 C   0  0  0  0  0  0  0  0  0  0  0  0
    7.9970    5.4920   16.7780 H   0  0  0  0  0  0  0  0  0  0  0  0
    7.7810    3.7230   16.8200 H   0  0  0  0  0  0  0  0  0  0  0  0
    7.7590    4.1410   14.4170 H   0  0  0  0  0  0  0  0  0  0  0  0
    6.8790    5.6670   14.6350 H   0  0  0  0  0  0  0  0  0  0  0  0
    5.7960    2.8520   15.0860 H   0  0  0  0  0  0  0  0  0  0  0  0
    5.0810    4.1240   14.0720 H   0  0  0  0  0  0  0  0  0  0  0  0
    4.2670    3.7530   16.6790 H   0  0  0  0  0  0  0  0  0  0  0  0
    4.4130    5.3970   16.0040 H   0  0  0  0  0  0  0  0  0  0  0  0
    2.0120    2.8380   20.7230 C   0  0  0  0  0  0  0  0  0  0  0  0
    0.7280    3.0970   21.1060 F   0  0  0  0  0  0  0  0  0  0  0  0
    2.6310    2.3370   21.8300 F   0  0  0  0  0  0  0  0  0  0  0  0
    1.9360    1.8070   19.8350 F   0  0  0  0  0  0  0  0  0  0  0  0
  1  9  1  0  0  0  0
  1  4  1  0  0  0  0
  2  1  1  0  0  0  0
  3  2  2  0  0  0  0
  5  6  1  0  0  0  0
  6 11  1  0  0  0  0
  6  7  2  0  0  0  0
  7 12  1  0  0  0  0
  8  7  1  0  0  0  0
  8 13  1  0  0  0  0
  9  8  2  0  0  0  0
 10  5  2  0  0  0  0
 10  9  1  0  0  0  0
 14 10  1  0  0  0  0
 15 16  1  6  0  0  0
 15 17  1  0  0  0  0
 15  5  1  0  0  0  0
 17 19  1  0  0  0  0
 18 17  1  0  0  0  0
 20 17  1  0  0  0  0
 21 15  1  0  0  0  0
 22 21  1  0  0  0  0
 23 22  2  0  0  0  0
 24 23  1  0  0  0  0
 25 24  2  0  0  0  0
 25 26  1  0  0  0  0
 26 28  1  0  0  0  0
 26 22  1  0  0  0  0
 27 25  1  0  0  0  0
 28 29  1  0  0  0  0
 28 30  1  0  0  0  0
 31 28  1  0  0  0  0
 32  2  1  0  0  0  0
 32 37  1  0  0  0  0
 33 34  1  0  0  0  0
 33 32  2  0  0  0  0
 34 35  2  0  0  0  0
 35 36  1  0  0  0  0
 36 37  2  0  0  0  0
 36 55  1  0  0  0  0
 38 33  1  0  0  0  0
 39 35  1  0  0  0  0
 40 34  1  0  0  0  0
 40 41  2  0  0  0  0
 42 40  1  0  0  0  0
 43 47  1  0  0  0  0
 43 48  1  0  0  0  0
 43 42  1  0  0  0  0
 44 43  1  0  0  0  0
 45 44  1  0  0  0  0
 45 51  1  0  0  0  0
 45 46  1  0  0  0  0
 46 53  1  0  0  0  0
 46 42  1  0  0  0  0
 49 44  1  0  0  0  0
 50 44  1  0  0  0  0
 52 45  1  0  0  0  0
 54 46  1  0  0  0  0
 55 56  1  0  0  0  0
 55 57  1  0  0  0  0
 58 55  1  0  0  0  0
M  END
>  <MODEL>
1

>  <REMARK>
 VINA RESULT:    -9.167      0.000      0.000
 INTER + INTRA:         -14.499
 INTER:                 -13.915
 INTRA:                  -0.584
 UNBOUND:                -1.044
  Name = 
  9 active torsions:
  status: ('A' for Active; 'I' for Inactive)
    1  A    between atoms: C_1  and  C_2
    2  A    between atoms: C_2  and  S_3
    3  A    between atoms: C_2  and  C_10
    4  A    between atoms: S_3  and  C_4
    5  A    between atoms: N_8  and  C_9
    6  A    between atoms: C_14  and  N_15
    7  A    between atoms: C_16  and  C_18
    8  A    between atoms: C_20  and  C_21
    9  A    between atoms: C_29  and  C_30
                            x       y       z     vdW  Elec       q    Type
                         _______ _______ _______ _____ _____    ______ ____

>  <TORSDO>
F 9

$$$$
=
 OpenBabel07192307433D

 58 61  0  0  1  0  0  0  0  0999 V2000
    1.5250    7.8760   21.0760 N   0  0  0  0  0  0  0  0  0  0  0  0
    1.9640    7.6020   19.7950 C   0  0  0  0  0  0  0  0  0  0  0  0
    1.8160    8.2890   18.7910 O   0  0  0  0  0  0  0  0  0  0  0  0
    1.7800    7.1730   21.7650 H   0  0  0  0  0  0  0  0  0  0  0  0
    0.2310   11.3510   21.1970 C   0  0  0  0  0  0  0  0  0  0  0  0
   -0.6180   11.2810   22.3080 C   0  0  0  0  0  0  0  0  0  0  0  0
   -0.7730   10.0870   23.0120 C   0  0  0  0  0  0  0  0  0  0  0  0
   -0.0780    8.9400   22.6230 C   0  0  0  0  0  0  0  0  0  0  0  0
    0.7760    8.9790   21.5240 C   0  0  0  0  0  0  0  0  0  0  0  0
    0.9180   10.1810   20.8130 C   0  0  0  0  0  0  0  0  0  0  0  0
   -1.1780   12.1520   22.6420 H   0  0  0  0  0  0  0  0  0  0  0  0
   -1.4420   10.0470   23.8690 H   0  0  0  0  0  0  0  0  0  0  0  0
   -0.2240    8.0340   23.2020 H   0  0  0  0  0  0  0  0  0  0  0  0
    1.5750   10.2140   19.9460 H   0  0  0  0  0  0  0  0  0  0  0  0
    0.4260   12.6300   20.4010 C   0  0  2  0  0  0  0  0  0  0  0  0
    1.5060   12.7080   20.2130 H   0  0  0  0  0  0  0  0  0  0  0  0
    0.0930   13.9190   21.1610 C   0  0  0  0  0  0  0  0  0  0  0  0
    0.9440   14.3480   21.6970 H   0  0  0  0  0  0  0  0  0  0  0  0
   -0.2470   14.6850   20.4540 H   0  0  0  0  0  0  0  0  0  0  0  0
   -0.7190   13.7550   21.8780 H   0  0  0  0  0  0  0  0  0  0  0  0
   -0.2650   12.5230   18.7150 S   0  0  0  0  0  0  0  0  0  0  0  0
   -1.9530   12.2380   18.9180 C   0  0  0  0  0  0  0  0  0  0  0  0
   -2.7560   12.7410   19.8250 N   0  0  0  0  0  0  0  0  0  0  0  0
   -4.0290   12.2850   19.5680 N   0  0  0  0  0  0  0  0  0  0  0  0
   -3.9640   11.5140   18.5060 C   0  0  0  0  0  0  0  0  0  0  0  0
   -2.6730   11.4330   18.0790 N   0  0  0  0  0  0  0  0  0  0  0  0
   -4.7960   11.0080   18.0340 H   0  0  0  0  0  0  0  0  0  0  0  0
   -2.2030   10.6590   16.9640 C   0  0  0  0  0  0  0  0  0  0  0  0
   -1.3010   11.1220   16.5540 H   0  0  0  0  0  0  0  0  0  0  0  0
   -2.9800   10.6440   16.1960 H   0  0  0  0  0  0  0  0  0  0  0  0
   -1.9760    9.6470   17.3060 H   0  0  0  0  0  0  0  0  0  0  0  0
    2.7110    6.3040   19.7030 C   0  0  0  0  0  0  0  0  0  0  0  0
    3.9570    6.2600   19.1060 C   0  0  0  0  0  0  0  0  0  0  0  0
    4.6020    5.0300   19.0800 C   0  0  0  0  0  0  0  0  0  0  0  0
    3.9880    3.8860   19.5980 C   0  0  0  0  0  0  0  0  0  0  0  0
    2.7240    4.0090   20.1690 C   0  0  0  0  0  0  0  0  0  0  0  0
    2.0860    5.2140   20.2440 N   0  0  0  0  0  0  0  0  0  0  0  0
    4.4120    7.1450   18.6760 H   0  0  0  0  0  0  0  0  0  0  0  0
    4.4800    2.9180   19.5360 H   0  0  0  0  0  0  0  0  0  0  0  0
    5.9260    4.9350   18.4380 C   0  0  0  0  0  0  0  0  0  0  0  0
    6.9180    5.0040   19.1540 O   0  0  0  0  0  0  0  0  0  0  0  0
    5.9730    4.7780   17.0680 N   0  0  0  0  0  0  0  0  0  0  0  0
    7.2480    4.6610   16.3840 C   0  0  0  0  0  0  0  0  0  0  0  0
    6.8750    4.6400   14.9110 C   0  0  0  0  0  0  0  0  0  0  0  0
    5.5340    3.9170   14.9190 C   0  0  0  0  0  0  0  0  0  0  0  0
    4.8660    4.4450   16.1790 C   0  0  0  0  0  0  0  0  0  0  0  0
    7.9120    5.4900   16.6540 H   0  0  0  0  0  0  0  0  0  0  0  0
    7.7150    3.7180   16.6940 H   0  0  0  0  0  0  0  0  0  0  0  0
    7.6270    4.1450   14.2930 H   0  0  0  0  0  0  0  0  0  0  0  0
    6.7390    5.6620   14.5400 H   0  0  0  0  0  0  0  0  0  0  0  0
    5.6940    2.8350   15.0070 H   0  0  0  0  0  0  0  0  0  0  0  0
    4.9420    4.1040   14.0170 H   0  0  0  0  0  0  0  0  0  0  0  0
    4.1980    3.7150   16.6420 H   0  0  0  0  0  0  0  0  0  0  0  0
    4.3110    5.3630   15.9700 H   0  0  0  0  0  0  0  0  0  0  0  0
    2.0450    2.7610   20.7200 C   0  0  0  0  0  0  0  0  0  0  0  0
    0.7790    3.0140   21.1600 F   0  0  0  0  0  0  0  0  0  0  0  0
    2.7080    2.2370   21.7900 F   0  0  0  0  0  0  0  0  0  0  0  0
    1.9310    1.7490   19.8140 F   0  0  0  0  0  0  0  0  0  0  0  0
  1  9  1  0  0  0  0
  1  4  1  0  0  0  0
  2  1  1  0  0  0  0
  3  2  2  0  0  0  0
  5  6  1  0  0  0  0
  6 11  1  0  0  0  0
  6  7  2  0  0  0  0
  7 12  1  0  0  0  0
  8  7  1  0  0  0  0
  8 13  1  0  0  0  0
  9  8  2  0  0  0  0
 10  5  2  0  0  0  0
 10  9  1  0  0  0  0
 14 10  1  0  0  0  0
 15 16  1  6  0  0  0
 15 17  1  0  0  0  0
 15  5  1  0  0  0  0
 17 18  1  0  0  0  0
 17 20  1  0  0  0  0
 19 17  1  0  0  0  0
 21 22  1  0  0  0  0
 21 15  1  0  0  0  0
 22 23  2  0  0  0  0
 24 23  1  0  0  0  0
 25 24  2  0  0  0  0
 26 25  1  0  0  0  0
 26 22  1  0  0  0  0
 27 25  1  0  0  0  0
 28 31  1  0  0  0  0
 28 26  1  0  0  0  0
 29 28  1  0  0  0  0
 30 28  1  0  0  0  0
 32  2  1  0  0  0  0
 32 37  1  0  0  0  0
 33 32  2  0  0  0  0
 34 33  1  0  0  0  0
 34 35  2  0  0  0  0
 35 36  1  0  0  0  0
 36 37  2  0  0  0  0
 36 55  1  0  0  0  0
 38 33  1  0  0  0  0
 39 35  1  0  0  0  0
 40 34  1  0  0  0  0
 40 41  2  0  0  0  0
 42 40  1  0  0  0  0
 43 47  1  0  0  0  0
 43 48  1  0  0  0  0
 43 42  1  0  0  0  0
 44 45  1  0  0  0  0
 44 43  1  0  0  0  0
 45 51  1  0  0  0  0
 45 46  1  0  0  0  0
 46 53  1  0  0  0  0
 46 42  1  0  0  0  0
 49 44  1  0  0  0  0
 50 44  1  0  0  0  0
 52 45  1  0  0  0  0
 54 46  1  0  0  0  0
 55 56  1  0  0  0  0
 55 57  1  0  0  0  0
 58 55  1  0  0  0  0
M  END
>  <MODEL>
2

>  <REMARK>
 VINA RESULT:    -8.804      1.097      1.477
 INTER + INTRA:         -13.966
 INTER:                 -13.293
 INTRA:                  -0.673
 UNBOUND:                -1.044
  Name = 
  9 active torsions:
  status: ('A' for Active; 'I' for Inactive)
    1  A    between atoms: C_1  and  C_2
    2  A    between atoms: C_2  and  S_3
    3  A    between atoms: C_2  and  C_10
    4  A    between atoms: S_3  and  C_4
    5  A    between atoms: N_8  and  C_9
    6  A    between atoms: C_14  and  N_15
    7  A    between atoms: C_16  and  C_18
    8  A    between atoms: C_20  and  C_21
    9  A    between atoms: C_29  and  C_30
                            x       y       z     vdW  Elec       q    Type
                         _______ _______ _______ _____ _____    ______ ____

>  <TORSDO>
F 9

$$$$
=
 OpenBabel07192307433D

 58 61  0  0  1  0  0  0  0  0999 V2000
    1.3890    7.8210   20.9600 N   0  0  0  0  0  0  0  0  0  0  0  0
    2.0010    7.6220   19.7380 C   0  0  0  0  0  0  0  0  0  0  0  0
    1.9970    8.3710   18.7690 O   0  0  0  0  0  0  0  0  0  0  0  0
    1.5420    7.0740   21.6320 H   0  0  0  0  0  0  0  0  0  0  0  0
   -0.8490   10.7650   20.6640 C   0  0  0  0  0  0  0  0  0  0  0  0
   -1.0130   11.1130   22.0100 C   0  0  0  0  0  0  0  0  0  0  0  0
   -0.3930   10.3730   23.0180 C   0  0  0  0  0  0  0  0  0  0  0  0
    0.4050    9.2730   22.6990 C   0  0  0  0  0  0  0  0  0  0  0  0
    0.5880    8.9030   21.3690 C   0  0  0  0  0  0  0  0  0  0  0  0
   -0.0470    9.6460   20.3620 C   0  0  0  0  0  0  0  0  0  0  0  0
   -1.6280   11.9630   22.3000 H   0  0  0  0  0  0  0  0  0  0  0  0
   -0.5360   10.6520   24.0590 H   0  0  0  0  0  0  0  0  0  0  0  0
    0.8730    8.7290   23.5130 H   0  0  0  0  0  0  0  0  0  0  0  0
    0.0830    9.3540   19.3210 H   0  0  0  0  0  0  0  0  0  0  0  0
   -1.5080   11.5420   19.5370 C   0  0  2  0  0  0  0  0  0  0  0  0
   -2.5780   11.5830   19.7820 H   0  0  0  0  0  0  0  0  0  0  0  0
   -1.4710   10.8490   18.1700 C   0  0  0  0  0  0  0  0  0  0  0  0
   -2.1130    9.9660   18.1050 H   0  0  0  0  0  0  0  0  0  0  0  0
   -1.8190   11.5440   17.3960 H   0  0  0  0  0  0  0  0  0  0  0  0
   -0.4510   10.5520   17.9050 H   0  0  0  0  0  0  0  0  0  0  0  0
   -1.0340   13.3050   19.5260 S   0  0  0  0  0  0  0  0  0  0  0  0
    0.6870   13.3270   19.4160 C   0  0  0  0  0  0  0  0  0  0  0  0
    1.4400   12.9180   18.4230 N   0  0  0  0  0  0  0  0  0  0  0  0
    2.7520   13.1840   18.7460 N   0  0  0  0  0  0  0  0  0  0  0  0
    2.7580   13.7500   19.9310 C   0  0  0  0  0  0  0  0  0  0  0  0
    1.4830   13.8360   20.4040 N   0  0  0  0  0  0  0  0  0  0  0  0
    3.6330   14.0960   20.4680 H   0  0  0  0  0  0  0  0  0  0  0  0
    1.0930   14.3690   21.6790 C   0  0  0  0  0  0  0  0  0  0  0  0
    0.2700   13.7760   22.0860 H   0  0  0  0  0  0  0  0  0  0  0  0
    0.7590   15.4000   21.5410 H   0  0  0  0  0  0  0  0  0  0  0  0
    1.9480   14.3270   22.3570 H   0  0  0  0  0  0  0  0  0  0  0  0
    2.7490    6.3230   19.6690 C   0  0  0  0  0  0  0  0  0  0  0  0
    3.9940    6.2690   19.0720 C   0  0  0  0  0  0  0  0  0  0  0  0
    4.6400    5.0390   19.0670 C   0  0  0  0  0  0  0  0  0  0  0  0
    4.0270    3.9040   19.6060 C   0  0  0  0  0  0  0  0  0  0  0  0
    2.7640    4.0360   20.1760 C   0  0  0  0  0  0  0  0  0  0  0  0
    2.1250    5.2420   20.2290 N   0  0  0  0  0  0  0  0  0  0  0  0
    4.4480    7.1470   18.6260 H   0  0  0  0  0  0  0  0  0  0  0  0
    4.5200    2.9350   19.5610 H   0  0  0  0  0  0  0  0  0  0  0  0
    5.9640    4.9340   18.4270 C   0  0  0  0  0  0  0  0  0  0  0  0
    6.9550    4.9960   19.1440 O   0  0  0  0  0  0  0  0  0  0  0  0
    6.0110    4.7760   17.0570 N   0  0  0  0  0  0  0  0  0  0  0  0
    7.2860    4.6490   16.3740 C   0  0  0  0  0  0  0  0  0  0  0  0
    6.9140    4.6300   14.9010 C   0  0  0  0  0  0  0  0  0  0  0  0
    5.5670    3.9180   14.9080 C   0  0  0  0  0  0  0  0  0  0  0  0
    4.9020    4.4520   16.1670 C   0  0  0  0  0  0  0  0  0  0  0  0
    7.9560    5.4730   16.6440 H   0  0  0  0  0  0  0  0  0  0  0  0
    7.7450    3.7030   16.6850 H   0  0  0  0  0  0  0  0  0  0  0  0
    7.6630    4.1290   14.2840 H   0  0  0  0  0  0  0  0  0  0  0  0
    6.7860    5.6540   14.5290 H   0  0  0  0  0  0  0  0  0  0  0  0
    5.7190    2.8350   14.9970 H   0  0  0  0  0  0  0  0  0  0  0  0
    4.9770    4.1090   14.0050 H   0  0  0  0  0  0  0  0  0  0  0  0
    4.2280    3.7270   16.6300 H   0  0  0  0  0  0  0  0  0  0  0  0
    4.3540    5.3740   15.9580 H   0  0  0  0  0  0  0  0  0  0  0  0
    2.0860    2.7980   20.7490 C   0  0  0  0  0  0  0  0  0  0  0  0
    0.8490    3.0730   21.2540 F   0  0  0  0  0  0  0  0  0  0  0  0
    2.7900    2.2490   21.7790 F   0  0  0  0  0  0  0  0  0  0  0  0
    1.9050    1.7970   19.8410 F   0  0  0  0  0  0  0  0  0  0  0  0
  1  9  1  0  0  0  0
  1  4  1  0  0  0  0
  2  1  1  0  0  0  0
  3  2  2  0  0  0  0
  5  6  1  0  0  0  0
  6 11  1  0  0  0  0
  6  7  2  0  0  0  0
  7 12  1  0  0  0  0
  8  7  1  0  0  0  0
  8 13  1  0  0  0  0
  9  8  2  0  0  0  0
 10  5  2  0  0  0  0
 10  9  1  0  0  0  0
 14 10  1  0  0  0  0
 15 16  1  1  0  0  0
 15  5  1  0  0  0  0
 17 15  1  0  0  0  0
 18 17  1  0  0  0  0
 19 17  1  0  0  0  0
 20 17  1  0  0  0  0
 21 15  1  0  0  0  0
 22 21  1  0  0  0  0
 22 26  1  0  0  0  0
 23 24  1  0  0  0  0
 23 22  2  0  0  0  0
 24 25  2  0  0  0  0
 25 26  1  0  0  0  0
 25 27  1  0  0  0  0
 26 28  1  0  0  0  0
 28 29  1  0  0  0  0
 28 31  1  0  0  0  0
 30 28  1  0  0  0  0
 32  2  1  0  0  0  0
 32 37  1  0  0  0  0
 33 32  2  0  0  0  0
 34 33  1  0  0  0  0
 34 35  2  0  0  0  0
 35 36  1  0  0  0  0
 36 37  2  0  0  0  0
 36 55  1  0  0  0  0
 38 33  1  0  0  0  0
 39 35  1  0  0  0  0
 40 34  1  0  0  0  0
 40 41  2  0  0  0  0
 42 40  1  0  0  0  0
 43 47  1  0  0  0  0
 43 48  1  0  0  0  0
 43 42  1  0  0  0  0
 44 45  1  0  0  0  0
 44 43  1  0  0  0  0
 45 51  1  0  0  0  0
 45 46  1  0  0  0  0
 46 53  1  0  0  0  0
 46 42  1  0  0  0  0
 49 44  1  0  0  0  0
 50 44  1  0  0  0  0
 52 45  1  0  0  0  0
 54 46  1  0  0  0  0
 55 56  1  0  0  0  0
 55 57  1  0  0  0  0
 58 55  1  0  0  0  0
M  END
>  <MODEL>
3

>  <REMARK>
 VINA RESULT:    -8.759      1.859      2.863
 INTER + INTRA:         -13.899
 INTER:                 -13.046
 INTRA:                  -0.853
 UNBOUND:                -1.044
  Name = 
  9 active torsions:
  status: ('A' for Active; 'I' for Inactive)
    1  A    between atoms: C_1  and  C_2
    2  A    between atoms: C_2  and  S_3
    3  A    between atoms: C_2  and  C_10
    4  A    between atoms: S_3  and  C_4
    5  A    between atoms: N_8  and  C_9
    6  A    between atoms: C_14  and  N_15
    7  A    between atoms: C_16  and  C_18
    8  A    between atoms: C_20  and  C_21
    9  A    between atoms: C_29  and  C_30
                            x       y       z     vdW  Elec       q    Type
                         _______ _______ _______ _____ _____    ______ ____

>  <TORSDO>
F 9

$$$$
=
 OpenBabel07192307433D

 58 61  0  0  1  0  0  0  0  0999 V2000
    1.3830    7.8660   20.9630 N   0  0  0  0  0  0  0  0  0  0  0  0
    1.9920    7.6720   19.7390 C   0  0  0  0  0  0  0  0  0  0  0  0
    2.0130    8.4390   18.7840 O   0  0  0  0  0  0  0  0  0  0  0  0
    1.5130    7.1010   21.6210 H   0  0  0  0  0  0  0  0  0  0  0  0
   -0.3850   11.1220   20.7840 C   0  0  0  0  0  0  0  0  0  0  0  0
   -0.8730   11.2340   22.0910 C   0  0  0  0  0  0  0  0  0  0  0  0
   -0.6280   10.2320   23.0310 C   0  0  0  0  0  0  0  0  0  0  0  0
    0.1130    9.1010   22.6830 C   0  0  0  0  0  0  0  0  0  0  0  0
    0.6140    8.9620   21.3910 C   0  0  0  0  0  0  0  0  0  0  0  0
    0.3540    9.9690   20.4480 C   0  0  0  0  0  0  0  0  0  0  0  0
   -1.4560   12.0990   22.4010 H   0  0  0  0  0  0  0  0  0  0  0  0
   -1.0200   10.3300   24.0400 H   0  0  0  0  0  0  0  0  0  0  0  0
    0.2840    8.3490   23.4470 H   0  0  0  0  0  0  0  0  0  0  0  0
    0.7330    9.8600   19.4330 H   0  0  0  0  0  0  0  0  0  0  0  0
   -0.6300   12.1880   19.7290 C   0  0  2  0  0  0  0  0  0  0  0  0
   -1.3410   11.7490   19.0150 H   0  0  0  0  0  0  0  0  0  0  0  0
    0.5890   12.5350   18.8680 C   0  0  0  0  0  0  0  0  0  0  0  0
    0.6850   13.6020   18.6480 H   0  0  0  0  0  0  0  0  0  0  0  0
    1.5050   12.2420   19.3930 H   0  0  0  0  0  0  0  0  0  0  0  0
    0.5690   11.9890   17.9180 H   0  0  0  0  0  0  0  0  0  0  0  0
   -1.5540   13.6220   20.3790 S   0  0  0  0  0  0  0  0  0  0  0  0
   -3.1950   13.1070   20.5000 C   0  0  0  0  0  0  0  0  0  0  0  0
   -3.9110   12.4700   19.6040 N   0  0  0  0  0  0  0  0  0  0  0  0
   -5.1470   12.2100   20.1540 N   0  0  0  0  0  0  0  0  0  0  0  0
   -5.1460   12.6970   21.3730 C   0  0  0  0  0  0  0  0  0  0  0  0
   -3.9480   13.2950   21.6250 N   0  0  0  0  0  0  0  0  0  0  0  0
   -5.9640   12.6460   22.0810 H   0  0  0  0  0  0  0  0  0  0  0  0
   -3.5830   13.9660   22.8420 C   0  0  0  0  0  0  0  0  0  0  0  0
   -2.5790   13.6530   23.1430 H   0  0  0  0  0  0  0  0  0  0  0  0
   -4.2950   13.6900   23.6230 H   0  0  0  0  0  0  0  0  0  0  0  0
   -3.5960   15.0450   22.6690 H   0  0  0  0  0  0  0  0  0  0  0  0
    2.7020    6.3530   19.6460 C   0  0  0  0  0  0  0  0  0  0  0  0
    3.9690    6.2830   19.0980 C   0  0  0  0  0  0  0  0  0  0  0  0
    4.5760    5.0340   19.0680 C   0  0  0  0  0  0  0  0  0  0  0  0
    3.9070    3.8990   19.5350 C   0  0  0  0  0  0  0  0  0  0  0  0
    2.6250    4.0490   20.0580 C   0  0  0  0  0  0  0  0  0  0  0  0
    2.0220    5.2720   20.1350 N   0  0  0  0  0  0  0  0  0  0  0  0
    4.4680    7.1620   18.7080 H   0  0  0  0  0  0  0  0  0  0  0  0
    4.3710    2.9170   19.4690 H   0  0  0  0  0  0  0  0  0  0  0  0
    5.9220    4.9110   18.4780 C   0  0  0  0  0  0  0  0  0  0  0  0
    6.8850    4.9340   19.2340 O   0  0  0  0  0  0  0  0  0  0  0  0
    6.0190    4.7820   17.1080 N   0  0  0  0  0  0  0  0  0  0  0  0
    7.3180    4.6400   16.4730 C   0  0  0  0  0  0  0  0  0  0  0  0
    7.0040    4.6610   14.9860 C   0  0  0  0  0  0  0  0  0  0  0  0
    5.6420    3.9800   14.9240 C   0  0  0  0  0  0  0  0  0  0  0  0
    4.9400    4.5030   16.1680 C   0  0  0  0  0  0  0  0  0  0  0  0
    7.9940    5.4410   16.7870 H   0  0  0  0  0  0  0  0  0  0  0  0
    7.7420    3.6760   16.7800 H   0  0  0  0  0  0  0  0  0  0  0  0
    7.7650    4.1560   14.3880 H   0  0  0  0  0  0  0  0  0  0  0  0
    6.9130    5.6950   14.6330 H   0  0  0  0  0  0  0  0  0  0  0  0
    5.7660    2.8920   14.9950 H   0  0  0  0  0  0  0  0  0  0  0  0
    5.0930    4.2050   14.0040 H   0  0  0  0  0  0  0  0  0  0  0  0
    4.2320    3.7840   16.5880 H   0  0  0  0  0  0  0  0  0  0  0  0
    4.4220    5.4420   15.9580 H   0  0  0  0  0  0  0  0  0  0  0  0
    1.8860    2.8110   20.5510 C   0  0  0  0  0  0  0  0  0  0  0  0
    2.1700    1.7070   19.8010 F   0  0  0  0  0  0  0  0  0  0  0  0
    0.5320    2.9560   20.4930 F   0  0  0  0  0  0  0  0  0  0  0  0
    2.1740    2.4720   21.8390 F   0  0  0  0  0  0  0  0  0  0  0  0
  1  9  1  0  0  0  0
  1  4  1  0  0  0  0
  2  1  1  0  0  0  0
  3  2  2  0  0  0  0
  5  6  1  0  0  0  0
  6 11  1  0  0  0  0
  6  7  2  0  0  0  0
  7 12  1  0  0  0  0
  8  7  1  0  0  0  0
  8 13  1  0  0  0  0
  9  8  2  0  0  0  0
 10  5  2  0  0  0  0
 10  9  1  0  0  0  0
 14 10  1  0  0  0  0
 15 16  1  6  0  0  0
 15 21  1  0  0  0  0
 15  5  1  0  0  0  0
 17 19  1  0  0  0  0
 17 15  1  0  0  0  0
 18 17  1  0  0  0  0
 20 17  1  0  0  0  0
 21 22  1  0  0  0  0
 22 26  1  0  0  0  0
 23 24  1  0  0  0  0
 23 22  2  0  0  0  0
 24 25  2  0  0  0  0
 25 26  1  0  0  0  0
 25 27  1  0  0  0  0
 26 28  1  0  0  0  0
 28 29  1  0  0  0  0
 28 30  1  0  0  0  0
 31 28  1  0  0  0  0
 32  2  1  0  0  0  0
 32 37  1  0  0  0  0
 33 32  2  0  0  0  0
 34 33  1  0  0  0  0
 34 35  2  0  0  0  0
 35 36  1  0  0  0  0
 36 37  2  0  0  0  0
 36 55  1  0  0  0  0
 38 33  1  0  0  0  0
 39 35  1  0  0  0  0
 40 34  1  0  0  0  0
 40 41  2  0  0  0  0
 42 40  1  0  0  0  0
 43 48  1  0  0  0  0
 43 47  1  0  0  0  0
 43 42  1  0  0  0  0
 44 43  1  0  0  0  0
 45 44  1  0  0  0  0
 45 51  1  0  0  0  0
 45 46  1  0  0  0  0
 46 53  1  0  0  0  0
 46 42  1  0  0  0  0
 49 44  1  0  0  0  0
 50 44  1  0  0  0  0
 52 45  1  0  0  0  0
 54 46  1  0  0  0  0
 55 58  1  0  0  0  0
 56 55  1  0  0  0  0
 57 55  1  0  0  0  0
M  END
>  <MODEL>
4

>  <REMARK>
 VINA RESULT:    -8.421      1.776      2.323
 INTER + INTRA:         -13.403
 INTER:                 -12.968
 INTRA:                  -0.435
 UNBOUND:                -1.044
  Name = 
  9 active torsions:
  status: ('A' for Active; 'I' for Inactive)
    1  A    between atoms: C_1  and  C_2
    2  A    between atoms: C_2  and  S_3
    3  A    between atoms: C_2  and  C_10
    4  A    between atoms: S_3  and  C_4
    5  A    between atoms: N_8  and  C_9
    6  A    between atoms: C_14  and  N_15
    7  A    between atoms: C_16  and  C_18
    8  A    between atoms: C_20  and  C_21
    9  A    between atoms: C_29  and  C_30
                            x       y       z     vdW  Elec       q    Type
                         _______ _______ _______ _____ _____    ______ ____

>  <TORSDO>
F 9

$$$$
=
 OpenBabel07192307433D

 58 61  0  0  1  0  0  0  0  0999 V2000
    1.9600    7.6550   19.8510 N   0  0  0  0  0  0  0  0  0  0  0  0
    2.3050    7.6440   18.5130 C   0  0  0  0  0  0  0  0  0  0  0  0
    2.0810    8.5100   17.6760 O   0  0  0  0  0  0  0  0  0  0  0  0
    2.2670    6.8360   20.3690 H   0  0  0  0  0  0  0  0  0  0  0  0
    0.1530   10.8340   20.4720 C   0  0  0  0  0  0  0  0  0  0  0  0
   -0.1690   10.6990   21.8280 C   0  0  0  0  0  0  0  0  0  0  0  0
    0.2000    9.5550   22.5370 C   0  0  0  0  0  0  0  0  0  0  0  0
    0.9030    8.5270   21.9050 C   0  0  0  0  0  0  0  0  0  0  0  0
    1.2390    8.6340   20.5580 C   0  0  0  0  0  0  0  0  0  0  0  0
    0.8540    9.7820   19.8490 C   0  0  0  0  0  0  0  0  0  0  0  0
   -0.7170   11.4770   22.3560 H   0  0  0  0  0  0  0  0  0  0  0  0
   -0.0630    9.4620   23.5870 H   0  0  0  0  0  0  0  0  0  0  0  0
    1.1760    7.6580   22.4950 H   0  0  0  0  0  0  0  0  0  0  0  0
    1.1040    9.8660   18.7920 H   0  0  0  0  0  0  0  0  0  0  0  0
   -0.2320   12.0610   19.6630 C   0  0  2  0  0  0  0  0  0  0  0  0
    0.0960   11.8610   18.6340 H   0  0  0  0  0  0  0  0  0  0  0  0
    0.5150   13.3450   20.0430 C   0  0  0  0  0  0  0  0  0  0  0  0
    0.2030   14.2230   19.4710 H   0  0  0  0  0  0  0  0  0  0  0  0
    0.3300   13.5790   21.0980 H   0  0  0  0  0  0  0  0  0  0  0  0
    1.5970   13.2220   19.9220 H   0  0  0  0  0  0  0  0  0  0  0  0
   -2.0390   12.2430   19.4760 S   0  0  0  0  0  0  0  0  0  0  0  0
   -2.4590   11.3350   18.0710 C   0  0  0  0  0  0  0  0  0  0  0  0
   -1.6740   10.6050   17.3160 N   0  0  0  0  0  0  0  0  0  0  0  0
   -2.4480   10.0130   16.3430 N   0  0  0  0  0  0  0  0  0  0  0  0
   -3.6880   10.4020   16.5370 C   0  0  0  0  0  0  0  0  0  0  0  0
   -3.7380   11.2570   17.5970 N   0  0  0  0  0  0  0  0  0  0  0  0
   -4.5480   10.1050   15.9510 H   0  0  0  0  0  0  0  0  0  0  0  0
   -4.9160   11.9120   18.0930 C   0  0  0  0  0  0  0  0  0  0  0  0
   -5.3330   11.3340   18.9220 H   0  0  0  0  0  0  0  0  0  0  0  0
   -5.6520   11.9680   17.2880 H   0  0  0  0  0  0  0  0  0  0  0  0
   -4.6450   12.9120   18.4400 H   0  0  0  0  0  0  0  0  0  0  0  0
    3.0490    6.4030   18.1160 C   0  0  0  0  0  0  0  0  0  0  0  0
    4.2730    6.5000   17.4810 C   0  0  0  0  0  0  0  0  0  0  0  0
    4.9180    5.3110   17.1670 C   0  0  0  0  0  0  0  0  0  0  0  0
    4.3240    4.0760   17.4460 C   0  0  0  0  0  0  0  0  0  0  0  0
    3.0820    4.0620   18.0730 C   0  0  0  0  0  0  0  0  0  0  0  0
    2.4450    5.2170   18.4290 N   0  0  0  0  0  0  0  0  0  0  0  0
    4.7120    7.4610   17.2380 H   0  0  0  0  0  0  0  0  0  0  0  0
    4.8150    3.1490   17.1570 H   0  0  0  0  0  0  0  0  0  0  0  0
    6.2190    5.3690   16.4750 C   0  0  0  0  0  0  0  0  0  0  0  0
    7.1930    5.7480   17.1130 O   0  0  0  0  0  0  0  0  0  0  0  0
    6.2640    4.9970   15.1470 N   0  0  0  0  0  0  0  0  0  0  0  0
    7.5210    5.0170   14.4200 C   0  0  0  0  0  0  0  0  0  0  0  0
    7.1250    4.6770   12.9920 C   0  0  0  0  0  0  0  0  0  0  0  0
    5.9560    3.7190   13.1910 C   0  0  0  0  0  0  0  0  0  0  0  0
    5.2260    4.3110   14.3860 C   0  0  0  0  0  0  0  0  0  0  0  0
    8.0100    5.9920   14.5160 H   0  0  0  0  0  0  0  0  0  0  0  0
    8.1740    4.2480   14.8490 H   0  0  0  0  0  0  0  0  0  0  0  0
    7.9460    4.2410   12.4200 H   0  0  0  0  0  0  0  0  0  0  0  0
    6.7770    5.5760   12.4710 H   0  0  0  0  0  0  0  0  0  0  0  0
    6.3330    2.7190   13.4410 H   0  0  0  0  0  0  0  0  0  0  0  0
    5.3180    3.6340   12.3060 H   0  0  0  0  0  0  0  0  0  0  0  0
    4.7290    3.5530   14.9970 H   0  0  0  0  0  0  0  0  0  0  0  0
    4.4930    5.0560   14.0650 H   0  0  0  0  0  0  0  0  0  0  0  0
    2.4240    2.7180   18.3630 C   0  0  0  0  0  0  0  0  0  0  0  0
    1.0680    2.8200   18.4730 F   0  0  0  0  0  0  0  0  0  0  0  0
    2.8490    2.1740   19.5380 F   0  0  0  0  0  0  0  0  0  0  0  0
    2.6510    1.7740   17.4060 F   0  0  0  0  0  0  0  0  0  0  0  0
  1  4  1  0  0  0  0
  1  9  1  0  0  0  0
  2  1  1  0  0  0  0
  3  2  2  0  0  0  0
  5  6  1  0  0  0  0
  6 11  1  0  0  0  0
  6  7  2  0  0  0  0
  7 12  1  0  0  0  0
  8 13  1  0  0  0  0
  8  7  1  0  0  0  0
  9  8  2  0  0  0  0
 10  5  2  0  0  0  0
 10  9  1  0  0  0  0
 14 10  1  0  0  0  0
 15 16  1  6  0  0  0
 15 17  1  0  0  0  0
 15  5  1  0  0  0  0
 17 19  1  0  0  0  0
 18 17  1  0  0  0  0
 20 17  1  0  0  0  0
 21 15  1  0  0  0  0
 22 21  1  0  0  0  0
 23 22  2  0  0  0  0
 24 25  2  0  0  0  0
 24 23  1  0  0  0  0
 25 26  1  0  0  0  0
 26 22  1  0  0  0  0
 26 28  1  0  0  0  0
 27 25  1  0  0  0  0
 28 31  1  0  0  0  0
 28 29  1  0  0  0  0
 30 28  1  0  0  0  0
 32 37  1  0  0  0  0
 32  2  1  0  0  0  0
 33 32  2  0  0  0  0
 34 35  2  0  0  0  0
 34 33  1  0  0  0  0
 35 36  1  0  0  0  0
 36 55  1  0  0  0  0
 36 37  2  0  0  0  0
 38 33  1  0  0  0  0
 39 35  1  0  0  0  0
 40 41  2  0  0  0  0
 40 34  1  0  0  0  0
 42 40  1  0  0  0  0
 43 47  1  0  0  0  0
 43 48  1  0  0  0  0
 43 42  1  0  0  0  0
 44 45  1  0  0  0  0
 44 43  1  0  0  0  0
 45 51  1  0  0  0  0
 45 46  1  0  0  0  0
 46 53  1  0  0  0  0
 46 42  1  0  0  0  0
 49 44  1  0  0  0  0
 50 44  1  0  0  0  0
 52 45  1  0  0  0  0
 54 46  1  0  0  0  0
 55 56  1  0  0  0  0
 55 57  1  0  0  0  0
 58 55  1  0  0  0  0
M  END
>  <MODEL>
5

>  <REMARK>
 VINA RESULT:    -8.420      1.414      1.622
 INTER + INTRA:         -13.401
 INTER:                 -12.995
 INTRA:                  -0.407
 UNBOUND:                -1.044
  Name = 
  9 active torsions:
  status: ('A' for Active; 'I' for Inactive)
    1  A    between atoms: C_1  and  C_2
    2  A    between atoms: C_2  and  S_3
    3  A    between atoms: C_2  and  C_10
    4  A    between atoms: S_3  and  C_4
    5  A    between atoms: N_8  and  C_9
    6  A    between atoms: C_14  and  N_15
    7  A    between atoms: C_16  and  C_18
    8  A    between atoms: C_20  and  C_21
    9  A    between atoms: C_29  and  C_30
                            x       y       z     vdW  Elec       q    Type
                         _______ _______ _______ _____ _____    ______ ____

>  <TORSDO>
F 9

$$$$
=
 OpenBabel07192307433D

 58 61  0  0  1  0  0  0  0  0999 V2000
    1.6540    8.5750   18.9820 N   0  0  0  0  0  0  0  0  0  0  0  0
    1.6900    7.7770   20.1090 C   0  0  0  0  0  0  0  0  0  0  0  0
    1.2350    8.0280   21.2190 O   0  0  0  0  0  0  0  0  0  0  0  0
    2.0760    8.1550   18.1580 H   0  0  0  0  0  0  0  0  0  0  0  0
   -0.8960   11.2610   18.7720 C   0  0  0  0  0  0  0  0  0  0  0  0
   -0.0860   12.3830   18.5650 C   0  0  0  0  0  0  0  0  0  0  0  0
    1.3020   12.2580   18.5050 C   0  0  0  0  0  0  0  0  0  0  0  0
    1.9070   11.0070   18.6440 C   0  0  0  0  0  0  0  0  0  0  0  0
    1.1270    9.8720   18.8490 C   0  0  0  0  0  0  0  0  0  0  0  0
   -0.2680   10.0080   18.9200 C   0  0  0  0  0  0  0  0  0  0  0  0
   -0.5190   13.3750   18.4520 H   0  0  0  0  0  0  0  0  0  0  0  0
    1.9180   13.1410   18.3500 H   0  0  0  0  0  0  0  0  0  0  0  0
    2.9900   10.9550   18.5850 H   0  0  0  0  0  0  0  0  0  0  0  0
   -0.8810    9.1250   19.0920 H   0  0  0  0  0  0  0  0  0  0  0  0
   -2.4110   11.3530   18.8470 C   0  0  2  0  0  0  0  0  0  0  0  0
   -2.7340   10.5220   19.4890 H   0  0  0  0  0  0  0  0  0  0  0  0
   -3.1390   11.0980   17.5220 C   0  0  0  0  0  0  0  0  0  0  0  0
   -2.9590   10.1030   17.1050 H   0  0  0  0  0  0  0  0  0  0  0  0
   -4.2210   11.1800   17.6750 H   0  0  0  0  0  0  0  0  0  0  0  0
   -2.8590   11.8420   16.7690 H   0  0  0  0  0  0  0  0  0  0  0  0
   -2.9820   12.8170   19.7750 S   0  0  0  0  0  0  0  0  0  0  0  0
   -2.8110   12.4110   21.4420 C   0  0  0  0  0  0  0  0  0  0  0  0
   -1.7640   11.9040   22.0480 N   0  0  0  0  0  0  0  0  0  0  0  0
   -2.0560   11.8030   23.3900 N   0  0  0  0  0  0  0  0  0  0  0  0
   -3.2770   12.2540   23.5620 C   0  0  0  0  0  0  0  0  0  0  0  0
   -3.8010   12.6220   22.3600 N   0  0  0  0  0  0  0  0  0  0  0  0
   -3.8040   12.3240   24.5060 H   0  0  0  0  0  0  0  0  0  0  0  0
   -5.1260   13.1360   22.1420 C   0  0  0  0  0  0  0  0  0  0  0  0
   -5.8040   12.7210   22.8930 H   0  0  0  0  0  0  0  0  0  0  0  0
   -5.4610   12.8310   21.1480 H   0  0  0  0  0  0  0  0  0  0  0  0
   -5.1020   14.2240   22.2270 H   0  0  0  0  0  0  0  0  0  0  0  0
    2.3680    6.4600   19.8670 C   0  0  0  0  0  0  0  0  0  0  0  0
    3.6690    6.4240   19.4010 C   0  0  0  0  0  0  0  0  0  0  0  0
    4.2420    5.1710   19.2250 C   0  0  0  0  0  0  0  0  0  0  0  0
    3.5100    4.0050   19.4680 C   0  0  0  0  0  0  0  0  0  0  0  0
    2.1990    4.1250   19.9210 C   0  0  0  0  0  0  0  0  0  0  0  0
    1.6250    5.3450   20.1410 N   0  0  0  0  0  0  0  0  0  0  0  0
    4.2190    7.3320   19.1820 H   0  0  0  0  0  0  0  0  0  0  0  0
    3.9510    3.0270   19.2870 H   0  0  0  0  0  0  0  0  0  0  0  0
    5.6230    5.0870   18.7140 C   0  0  0  0  0  0  0  0  0  0  0  0
    6.5400    5.1730   19.5220 O   0  0  0  0  0  0  0  0  0  0  0  0
    5.8030    4.9190   17.3570 N   0  0  0  0  0  0  0  0  0  0  0  0
    7.1400    4.8120   16.8000 C   0  0  0  0  0  0  0  0  0  0  0  0
    6.9110    4.7740   15.2980 C   0  0  0  0  0  0  0  0  0  0  0  0
    5.5830    4.0360   15.1830 C   0  0  0  0  0  0  0  0  0  0  0  0
    4.7910    4.5670   16.3680 C   0  0  0  0  0  0  0  0  0  0  0  0
    7.7660    5.6500   17.1250 H   0  0  0  0  0  0  0  0  0  0  0  0
    7.5850    3.8770   17.1610 H   0  0  0  0  0  0  0  0  0  0  0  0
    7.7250    4.2840   14.7600 H   0  0  0  0  0  0  0  0  0  0  0  0
    6.8000    5.7920   14.9060 H   0  0  0  0  0  0  0  0  0  0  0  0
    5.7460    2.9570   15.2960 H   0  0  0  0  0  0  0  0  0  0  0  0
    5.0790    4.2090   14.2270 H   0  0  0  0  0  0  0  0  0  0  0  0
    4.0900    3.8330   16.7710 H   0  0  0  0  0  0  0  0  0  0  0  0
    4.2490    5.4770   16.0990 H   0  0  0  0  0  0  0  0  0  0  0  0
    1.3920    2.8560   20.1710 C   0  0  0  0  0  0  0  0  0  0  0  0
    1.2310    2.6010   21.5020 F   0  0  0  0  0  0  0  0  0  0  0  0
    1.9930    1.7470   19.6550 F   0  0  0  0  0  0  0  0  0  0  0  0
    0.1370    2.8860   19.6410 F   0  0  0  0  0  0  0  0  0  0  0  0
  1  2  1  0  0  0  0
  2  3  2  0  0  0  0
  4  1  1  0  0  0  0
  5 15  1  0  0  0  0
  5 10  1  0  0  0  0
  6  5  2  0  0  0  0
  7  6  1  0  0  0  0
  7  8  2  0  0  0  0
  8  9  1  0  0  0  0
  9 10  2  0  0  0  0
  9  1  1  0  0  0  0
 10 14  1  0  0  0  0
 11  6  1  0  0  0  0
 12  7  1  0  0  0  0
 13  8  1  0  0  0  0
 15 16  1  1  0  0  0
 15 21  1  0  0  0  0
 17 19  1  0  0  0  0
 17 15  1  0  0  0  0
 18 17  1  0  0  0  0
 20 17  1  0  0  0  0
 21 22  1  0  0  0  0
 22 23  2  0  0  0  0
 22 26  1  0  0  0  0
 23 24  1  0  0  0  0
 24 25  2  0  0  0  0
 25 27  1  0  0  0  0
 26 25  1  0  0  0  0
 28 31  1  0  0  0  0
 28 26  1  0  0  0  0
 28 29  1  0  0  0  0
 30 28  1  0  0  0  0
 32  2  1  0  0  0  0
 32 37  1  0  0  0  0
 33 32  2  0  0  0  0
 34 33  1  0  0  0  0
 34 35  2  0  0  0  0
 35 36  1  0  0  0  0
 36 37  2  0  0  0  0
 36 55  1  0  0  0  0
 38 33  1  0  0  0  0
 39 35  1  0  0  0  0
 40 34  1  0  0  0  0
 40 41  2  0  0  0  0
 42 40  1  0  0  0  0
 43 47  1  0  0  0  0
 43 48  1  0  0  0  0
 43 42  1  0  0  0  0
 44 43  1  0  0  0  0
 45 51  1  0  0  0  0
 45 44  1  0  0  0  0
 45 46  1  0  0  0  0
 46 53  1  0  0  0  0
 46 42  1  0  0  0  0
 49 44  1  0  0  0  0
 50 44  1  0  0  0  0
 52 45  1  0  0  0  0
 54 46  1  0  0  0  0
 55 56  1  0  0  0  0
 57 55  1  0  0  0  0
 58 55  1  0  0  0  0
M  END
>  <MODEL>
6

>  <REMARK>
 VINA RESULT:    -8.417      2.200      3.176
 INTER + INTRA:         -13.397
 INTER:                 -12.360
 INTRA:                  -1.037
 UNBOUND:                -1.044
  Name = 
  9 active torsions:
  status: ('A' for Active; 'I' for Inactive)
    1  A    between atoms: C_1  and  C_2
    2  A    between atoms: C_2  and  S_3
    3  A    between atoms: C_2  and  C_10
    4  A    between atoms: S_3  and  C_4
    5  A    between atoms: N_8  and  C_9
    6  A    between atoms: C_14  and  N_15
    7  A    between atoms: C_16  and  C_18
    8  A    between atoms: C_20  and  C_21
    9  A    between atoms: C_29  and  C_30
                            x       y       z     vdW  Elec       q    Type
                         _______ _______ _______ _____ _____    ______ ____

>  <TORSDO>
F 9

$$$$
=
 OpenBabel07192307433D

 58 61  0  0  1  0  0  0  0  0999 V2000
    1.1640    8.5800   19.4510 N   0  0  0  0  0  0  0  0  0  0  0  0
    2.0680    8.2370   18.4640 C   0  0  0  0  0  0  0  0  0  0  0  0
    2.3280    8.8570   17.4400 O   0  0  0  0  0  0  0  0  0  0  0  0
    1.1260    7.9260   20.2290 H   0  0  0  0  0  0  0  0  0  0  0  0
   -0.5460   11.5660   20.8380 C   0  0  0  0  0  0  0  0  0  0  0  0
   -1.3790   11.9170   19.7690 C   0  0  0  0  0  0  0  0  0  0  0  0
   -1.3720   11.1760   18.5870 C   0  0  0  0  0  0  0  0  0  0  0  0
   -0.5350   10.0670   18.4520 C   0  0  0  0  0  0  0  0  0  0  0  0
    0.3040    9.6920   19.4980 C   0  0  0  0  0  0  0  0  0  0  0  0
    0.3000   10.4490   20.6800 C   0  0  0  0  0  0  0  0  0  0  0  0
   -2.0450   12.7750   19.8350 H   0  0  0  0  0  0  0  0  0  0  0  0
   -2.0210   11.4660   17.7640 H   0  0  0  0  0  0  0  0  0  0  0  0
   -0.5650    9.5160   17.5170 H   0  0  0  0  0  0  0  0  0  0  0  0
    0.9620   10.1680   21.4960 H   0  0  0  0  0  0  0  0  0  0  0  0
   -0.5200   12.3470   22.1410 C   0  0  2  0  0  0  0  0  0  0  0  0
    0.3280   11.9500   22.7160 H   0  0  0  0  0  0  0  0  0  0  0  0
   -1.7270   12.1120   23.0560 C   0  0  0  0  0  0  0  0  0  0  0  0
   -1.5440   12.3730   24.1020 H   0  0  0  0  0  0  0  0  0  0  0  0
   -2.5670   12.7320   22.7230 H   0  0  0  0  0  0  0  0  0  0  0  0
   -2.0570   11.0680   23.0150 H   0  0  0  0  0  0  0  0  0  0  0  0
   -0.0560   14.0970   21.9040 S   0  0  0  0  0  0  0  0  0  0  0  0
    1.2010   14.0920   20.7230 C   0  0  0  0  0  0  0  0  0  0  0  0
    2.4110   13.6000   20.8310 N   0  0  0  0  0  0  0  0  0  0  0  0
    3.0480   13.7650   19.6220 N   0  0  0  0  0  0  0  0  0  0  0  0
    2.2020   14.3560   18.8090 C   0  0  0  0  0  0  0  0  0  0  0  0
    1.0350   14.6060   19.4670 N   0  0  0  0  0  0  0  0  0  0  0  0
    2.3870   14.6170   17.7740 H   0  0  0  0  0  0  0  0  0  0  0  0
   -0.1160   15.2660   18.9160 C   0  0  0  0  0  0  0  0  0  0  0  0
   -0.0230   15.3110   17.8280 H   0  0  0  0  0  0  0  0  0  0  0  0
   -0.1620   16.2820   19.3150 H   0  0  0  0  0  0  0  0  0  0  0  0
   -1.0110   14.7010   19.1870 H   0  0  0  0  0  0  0  0  0  0  0  0
    2.7850    6.9520   18.7560 C   0  0  0  0  0  0  0  0  0  0  0  0
    4.0400    6.7210   18.2250 C   0  0  0  0  0  0  0  0  0  0  0  0
    4.6560    5.5210   18.5580 C   0  0  0  0  0  0  0  0  0  0  0  0
    4.0060    4.5790   19.3610 C   0  0  0  0  0  0  0  0  0  0  0  0
    2.7360    4.8790   19.8450 C   0  0  0  0  0  0  0  0  0  0  0  0
    2.1260    6.0680   19.5640 N   0  0  0  0  0  0  0  0  0  0  0  0
    4.5240    7.4420   17.5760 H   0  0  0  0  0  0  0  0  0  0  0  0
    4.4770    3.6230   19.5820 H   0  0  0  0  0  0  0  0  0  0  0  0
    5.9900    5.2270   18.0000 C   0  0  0  0  0  0  0  0  0  0  0  0
    6.9340    5.1560   18.7760 O   0  0  0  0  0  0  0  0  0  0  0  0
    6.0960    5.0530   16.6360 N   0  0  0  0  0  0  0  0  0  0  0  0
    7.3810    4.7440   16.0320 C   0  0  0  0  0  0  0  0  0  0  0  0
    7.1000    4.7640   14.5380 C   0  0  0  0  0  0  0  0  0  0  0  0
    5.6690    4.2460   14.4630 C   0  0  0  0  0  0  0  0  0  0  0  0
    5.0090    4.8780   15.6790 C   0  0  0  0  0  0  0  0  0  0  0  0
    8.1410    5.4680   16.3420 H   0  0  0  0  0  0  0  0  0  0  0  0
    7.6830    3.7450   16.3700 H   0  0  0  0  0  0  0  0  0  0  0  0
    7.8070    4.1590   13.9690 H   0  0  0  0  0  0  0  0  0  0  0  0
    7.1380    5.7920   14.1600 H   0  0  0  0  0  0  0  0  0  0  0  0
    5.6630    3.1530   14.5610 H   0  0  0  0  0  0  0  0  0  0  0  0
    5.1670    4.5090   13.5260 H   0  0  0  0  0  0  0  0  0  0  0  0
    4.2140    4.2580   16.1000 H   0  0  0  0  0  0  0  0  0  0  0  0
    4.6090    5.8650   15.4370 H   0  0  0  0  0  0  0  0  0  0  0  0
    2.0180    3.8470   20.7060 C   0  0  0  0  0  0  0  0  0  0  0  0
    2.2560    2.5700   20.2870 F   0  0  0  0  0  0  0  0  0  0  0  0
    0.6640    3.9970   20.6770 F   0  0  0  0  0  0  0  0  0  0  0  0
    2.3730    3.8810   22.0210 F   0  0  0  0  0  0  0  0  0  0  0  0
  1  9  1  0  0  0  0
  1  4  1  0  0  0  0
  2 32  1  0  0  0  0
  2  1  1  0  0  0  0
  3  2  2  0  0  0  0
  5 15  1  0  0  0  0
  6 11  1  0  0  0  0
  6  5  2  0  0  0  0
  7  6  1  0  0  0  0
  8  7  2  0  0  0  0
  8  9  1  0  0  0  0
  9 10  2  0  0  0  0
 10  5  1  0  0  0  0
 10 14  1  0  0  0  0
 12  7  1  0  0  0  0
 13  8  1  0  0  0  0
 15 16  1  1  0  0  0
 15 17  1  0  0  0  0
 17 18  1  0  0  0  0
 19 17  1  0  0  0  0
 20 17  1  0  0  0  0
 21 15  1  0  0  0  0
 22 23  2  0  0  0  0
 22 21  1  0  0  0  0
 24 23  1  0  0  0  0
 25 26  1  0  0  0  0
 25 24  2  0  0  0  0
 26 22  1  0  0  0  0
 27 25  1  0  0  0  0
 28 31  1  0  0  0  0
 28 30  1  0  0  0  0
 28 26  1  0  0  0  0
 29 28  1  0  0  0  0
 32 37  1  0  0  0  0
 33 34  1  0  0  0  0
 33 32  2  0  0  0  0
 34 35  2  0  0  0  0
 35 39  1  0  0  0  0
 35 36  1  0  0  0  0
 36 55  1  0  0  0  0
 37 36  2  0  0  0  0
 38 33  1  0  0  0  0
 40 34  1  0  0  0  0
 40 41  2  0  0  0  0
 42 40  1  0  0  0  0
 43 47  1  0  0  0  0
 43 48  1  0  0  0  0
 43 42  1  0  0  0  0
 44 43  1  0  0  0  0
 45 44  1  0  0  0  0
 45 51  1  0  0  0  0
 45 46  1  0  0  0  0
 46 53  1  0  0  0  0
 46 42  1  0  0  0  0
 49 44  1  0  0  0  0
 50 44  1  0  0  0  0
 52 45  1  0  0  0  0
 54 46  1  0  0  0  0
 55 58  1  0  0  0  0
 56 55  1  0  0  0  0
 57 55  1  0  0  0  0
M  END
>  <MODEL>
7

>  <REMARK>
 VINA RESULT:    -8.278      2.259      3.405
 INTER + INTRA:         -13.193
 INTER:                 -12.174
 INTRA:                  -1.019
 UNBOUND:                -1.044
  Name = 
  9 active torsions:
  status: ('A' for Active; 'I' for Inactive)
    1  A    between atoms: C_1  and  C_2
    2  A    between atoms: C_2  and  S_3
    3  A    between atoms: C_2  and  C_10
    4  A    between atoms: S_3  and  C_4
    5  A    between atoms: N_8  and  C_9
    6  A    between atoms: C_14  and  N_15
    7  A    between atoms: C_16  and  C_18
    8  A    between atoms: C_20  and  C_21
    9  A    between atoms: C_29  and  C_30
                            x       y       z     vdW  Elec       q    Type
                         _______ _______ _______ _____ _____    ______ ____

>  <TORSDO>
F 9

$$$$
=
 OpenBabel07192307433D

 58 61  0  0  1  0  0  0  0  0999 V2000
    1.7890    8.7450   18.9020 N   0  0  0  0  0  0  0  0  0  0  0  0
    1.7290    7.9190   20.0070 C   0  0  0  0  0  0  0  0  0  0  0  0
    1.2210    8.1620   21.0950 O   0  0  0  0  0  0  0  0  0  0  0  0
    2.2410    8.3290   18.0920 H   0  0  0  0  0  0  0  0  0  0  0  0
   -0.6340   11.5510   18.7620 C   0  0  0  0  0  0  0  0  0  0  0  0
    0.2210   12.6300   18.5070 C   0  0  0  0  0  0  0  0  0  0  0  0
    1.5980   12.4360   18.3900 C   0  0  0  0  0  0  0  0  0  0  0  0
    2.1460   11.1590   18.5210 C   0  0  0  0  0  0  0  0  0  0  0  0
    1.3210   10.0650   18.7730 C   0  0  0  0  0  0  0  0  0  0  0  0
   -0.0610   10.2710   18.9010 C   0  0  0  0  0  0  0  0  0  0  0  0
   -0.1680   13.6410   18.3990 H   0  0  0  0  0  0  0  0  0  0  0  0
    2.2480   13.2850   18.1980 H   0  0  0  0  0  0  0  0  0  0  0  0
    3.2210   11.0520   18.4170 H   0  0  0  0  0  0  0  0  0  0  0  0
   -0.7100    9.4210   19.1100 H   0  0  0  0  0  0  0  0  0  0  0  0
   -2.1380   11.7190   18.8990 C   0  0  2  0  0  0  0  0  0  0  0  0
   -2.4360   12.4330   18.1190 H   0  0  0  0  0  0  0  0  0  0  0  0
   -2.5950   12.3870   20.2010 C   0  0  0  0  0  0  0  0  0  0  0  0
   -2.9930   13.3960   20.0630 H   0  0  0  0  0  0  0  0  0  0  0  0
   -3.3990   11.7960   20.6550 H   0  0  0  0  0  0  0  0  0  0  0  0
   -1.7770   12.4360   20.9280 H   0  0  0  0  0  0  0  0  0  0  0  0
   -3.0600   10.2140   18.4350 S   0  0  0  0  0  0  0  0  0  0  0  0
   -3.1910   10.2560   16.7160 C   0  0  0  0  0  0  0  0  0  0  0  0
   -2.4610    9.6170   15.8330 N   0  0  0  0  0  0  0  0  0  0  0  0
   -2.9600    9.9010   14.5820 N   0  0  0  0  0  0  0  0  0  0  0  0
   -3.9840   10.7080   14.7400 C   0  0  0  0  0  0  0  0  0  0  0  0
   -4.1490   10.9810   16.0650 N   0  0  0  0  0  0  0  0  0  0  0  0
   -4.6080   11.1100   13.9520 H   0  0  0  0  0  0  0  0  0  0  0  0
   -5.1470   11.8490   16.6270 C   0  0  0  0  0  0  0  0  0  0  0  0
   -4.7800   12.8800   16.6170 H   0  0  0  0  0  0  0  0  0  0  0  0
   -5.3360   11.5450   17.6590 H   0  0  0  0  0  0  0  0  0  0  0  0
   -6.0580   11.7760   16.0280 H   0  0  0  0  0  0  0  0  0  0  0  0
    2.3690    6.5840   19.7680 C   0  0  0  0  0  0  0  0  0  0  0  0
    3.6690    6.5080   19.3070 C   0  0  0  0  0  0  0  0  0  0  0  0
    4.2060    5.2390   19.1340 C   0  0  0  0  0  0  0  0  0  0  0  0
    3.4390    4.0960   19.3770 C   0  0  0  0  0  0  0  0  0  0  0  0
    2.1310    4.2540   19.8250 C   0  0  0  0  0  0  0  0  0  0  0  0
    1.5930    5.4910   20.0410 N   0  0  0  0  0  0  0  0  0  0  0  0
    4.2470    7.3990   19.0890 H   0  0  0  0  0  0  0  0  0  0  0  0
    3.8520    3.1040   19.1980 H   0  0  0  0  0  0  0  0  0  0  0  0
    5.5860    5.1130   18.6290 C   0  0  0  0  0  0  0  0  0  0  0  0
    6.5030    5.1740   19.4390 O   0  0  0  0  0  0  0  0  0  0  0  0
    5.7660    4.9380   17.2730 N   0  0  0  0  0  0  0  0  0  0  0  0
    7.1010    4.7900   16.7200 C   0  0  0  0  0  0  0  0  0  0  0  0
    6.8760    4.7560   15.2170 C   0  0  0  0  0  0  0  0  0  0  0  0
    5.5270    4.0570   15.0990 C   0  0  0  0  0  0  0  0  0  0  0  0
    4.7470    4.6130   16.2810 C   0  0  0  0  0  0  0  0  0  0  0  0
    7.7490    5.6110   17.0450 H   0  0  0  0  0  0  0  0  0  0  0  0
    7.5170    3.8430   17.0850 H   0  0  0  0  0  0  0  0  0  0  0  0
    7.6760    4.2410   14.6830 H   0  0  0  0  0  0  0  0  0  0  0  0
    6.7950    5.7760   14.8240 H   0  0  0  0  0  0  0  0  0  0  0  0
    5.6580    2.9730   15.2150 H   0  0  0  0  0  0  0  0  0  0  0  0
    5.0310    4.2420   14.1410 H   0  0  0  0  0  0  0  0  0  0  0  0
    4.0230    3.9000   16.6830 H   0  0  0  0  0  0  0  0  0  0  0  0
    4.2320    5.5370   16.0080 H   0  0  0  0  0  0  0  0  0  0  0  0
    1.2870    3.0100   20.0740 C   0  0  0  0  0  0  0  0  0  0  0  0
    1.9490    1.8630   19.7470 F   0  0  0  0  0  0  0  0  0  0  0  0
    0.1440    3.0000   19.3310 F   0  0  0  0  0  0  0  0  0  0  0  0
    0.8950    2.8590   21.3710 F   0  0  0  0  0  0  0  0  0  0  0  0
  1  2  1  0  0  0  0
  2  3  2  0  0  0  0
  4  1  1  0  0  0  0
  5 15  1  0  0  0  0
  5 10  1  0  0  0  0
  6  5  2  0  0  0  0
  7  6  1  0  0  0  0
  7  8  2  0  0  0  0
  8  9  1  0  0  0  0
  9 10  2  0  0  0  0
  9  1  1  0  0  0  0
 10 14  1  0  0  0  0
 11  6  1  0  0  0  0
 12  7  1  0  0  0  0
 13  8  1  0  0  0  0
 15 16  1  6  0  0  0
 15 17  1  0  0  0  0
 17 19  1  0  0  0  0
 17 20  1  0  0  0  0
 18 17  1  0  0  0  0
 21 15  1  0  0  0  0
 22 21  1  0  0  0  0
 23 22  2  0  0  0  0
 24 25  2  0  0  0  0
 24 23  1  0  0  0  0
 25 26  1  0  0  0  0
 26 28  1  0  0  0  0
 26 22  1  0  0  0  0
 27 25  1  0  0  0  0
 28 30  1  0  0  0  0
 29 28  1  0  0  0  0
 31 28  1  0  0  0  0
 32  2  1  0  0  0  0
 32 37  1  0  0  0  0
 33 32  2  0  0  0  0
 34 33  1  0  0  0  0
 34 35  2  0  0  0  0
 35 36  1  0  0  0  0
 36 37  2  0  0  0  0
 36 55  1  0  0  0  0
 38 33  1  0  0  0  0
 39 35  1  0  0  0  0
 40 34  1  0  0  0  0
 40 41  2  0  0  0  0
 42 40  1  0  0  0  0
 43 47  1  0  0  0  0
 43 48  1  0  0  0  0
 43 42  1  0  0  0  0
 44 43  1  0  0  0  0
 45 51  1  0  0  0  0
 45 44  1  0  0  0  0
 45 46  1  0  0  0  0
 46 53  1  0  0  0  0
 46 42  1  0  0  0  0
 49 44  1  0  0  0  0
 50 44  1  0  0  0  0
 52 45  1  0  0  0  0
 54 46  1  0  0  0  0
 55 58  1  0  0  0  0
 56 55  1  0  0  0  0
 57 55  1  0  0  0  0
M  END
>  <MODEL>
8

>  <REMARK>
 VINA RESULT:    -8.260      1.482      2.023
 INTER + INTRA:         -13.167
 INTER:                 -12.079
 INTRA:                  -1.088
 UNBOUND:                -1.044
  Name = 
  9 active torsions:
  status: ('A' for Active; 'I' for Inactive)
    1  A    between atoms: C_1  and  C_2
    2  A    between atoms: C_2  and  S_3
    3  A    between atoms: C_2  and  C_10
    4  A    between atoms: S_3  and  C_4
    5  A    between atoms: N_8  and  C_9
    6  A    between atoms: C_14  and  N_15
    7  A    between atoms: C_16  and  C_18
    8  A    between atoms: C_20  and  C_21
    9  A    between atoms: C_29  and  C_30
                            x       y       z     vdW  Elec       q    Type
                         _______ _______ _______ _____ _____    ______ ____

>  <TORSDO>
F 9

$$$$
=
 OpenBabel07192307433D

 58 61  0  0  1  0  0  0  0  0999 V2000
    2.0230    8.4510   18.6120 N   0  0  0  0  0  0  0  0  0  0  0  0
    1.9980    7.5550   19.6630 C   0  0  0  0  0  0  0  0  0  0  0  0
    1.5420    7.7320   20.7870 O   0  0  0  0  0  0  0  0  0  0  0  0
    2.4330    8.0820   17.7580 H   0  0  0  0  0  0  0  0  0  0  0  0
   -0.3170   11.3100   18.9490 C   0  0  0  0  0  0  0  0  0  0  0  0
    0.5070   12.3750   18.5660 C   0  0  0  0  0  0  0  0  0  0  0  0
    1.8360   12.1550   18.2070 C   0  0  0  0  0  0  0  0  0  0  0  0
    2.3680   10.8630   18.2170 C   0  0  0  0  0  0  0  0  0  0  0  0
    1.5730    9.7830   18.5910 C   0  0  0  0  0  0  0  0  0  0  0  0
    0.2400   10.0140   18.9630 C   0  0  0  0  0  0  0  0  0  0  0  0
    0.1300   13.3960   18.5460 H   0  0  0  0  0  0  0  0  0  0  0  0
    2.4640   12.9940   17.9180 H   0  0  0  0  0  0  0  0  0  0  0  0
    3.4050   10.7370   17.9240 H   0  0  0  0  0  0  0  0  0  0  0  0
   -0.3830    9.1740   19.2680 H   0  0  0  0  0  0  0  0  0  0  0  0
   -1.7690   11.5060   19.3510 C   0  0  2  0  0  0  0  0  0  0  0  0
   -1.9360   10.8470   20.2140 H   0  0  0  0  0  0  0  0  0  0  0  0
   -2.7940   11.0250   18.3180 C   0  0  0  0  0  0  0  0  0  0  0  0
   -2.4520   11.1130   17.2830 H   0  0  0  0  0  0  0  0  0  0  0  0
   -3.0130    9.9640   18.4840 H   0  0  0  0  0  0  0  0  0  0  0  0
   -3.7380   11.5720   18.4150 H   0  0  0  0  0  0  0  0  0  0  0  0
   -2.0890   13.1630   20.0470 S   0  0  0  0  0  0  0  0  0  0  0  0
   -2.9670   12.8960   21.5070 C   0  0  0  0  0  0  0  0  0  0  0  0
   -4.2500   13.0670   21.7220 N   0  0  0  0  0  0  0  0  0  0  0  0
   -4.5210   12.6720   23.0130 N   0  0  0  0  0  0  0  0  0  0  0  0
   -3.3910   12.2690   23.5480 C   0  0  0  0  0  0  0  0  0  0  0  0
   -2.3810   12.4180   22.6450 N   0  0  0  0  0  0  0  0  0  0  0  0
   -3.2620   11.8810   24.5500 H   0  0  0  0  0  0  0  0  0  0  0  0
   -0.9960   12.1120   22.8760 C   0  0  0  0  0  0  0  0  0  0  0  0
   -0.8870   11.6340   23.8540 H   0  0  0  0  0  0  0  0  0  0  0  0
   -0.4250   13.0430   22.8650 H   0  0  0  0  0  0  0  0  0  0  0  0
   -0.6480   11.4340   22.0940 H   0  0  0  0  0  0  0  0  0  0  0  0
    2.6040    6.2290   19.3100 C   0  0  0  0  0  0  0  0  0  0  0  0
    3.8960    6.1620   18.8250 C   0  0  0  0  0  0  0  0  0  0  0  0
    4.4020    4.8990   18.5440 C   0  0  0  0  0  0  0  0  0  0  0  0
    3.6120    3.7570   18.7070 C   0  0  0  0  0  0  0  0  0  0  0  0
    2.3140    3.9080   19.1850 C   0  0  0  0  0  0  0  0  0  0  0  0
    1.8070    5.1350   19.5070 N   0  0  0  0  0  0  0  0  0  0  0  0
    4.4910    7.0550   18.6690 H   0  0  0  0  0  0  0  0  0  0  0  0
    4.0000    2.7750   18.4440 H   0  0  0  0  0  0  0  0  0  0  0  0
    5.7720    4.7840   18.0090 C   0  0  0  0  0  0  0  0  0  0  0  0
    6.6960    4.7080   18.8090 O   0  0  0  0  0  0  0  0  0  0  0  0
    5.9340    4.7720   16.6400 N   0  0  0  0  0  0  0  0  0  0  0  0
    7.2570    4.6430   16.0570 C   0  0  0  0  0  0  0  0  0  0  0  0
    7.0200    4.8050   14.5640 C   0  0  0  0  0  0  0  0  0  0  0  0
    5.6440    4.1790   14.3770 C   0  0  0  0  0  0  0  0  0  0  0  0
    4.8950    4.6130   15.6280 C   0  0  0  0  0  0  0  0  0  0  0  0
    7.9410    5.3910   16.4730 H   0  0  0  0  0  0  0  0  0  0  0  0
    7.6380    3.6430   16.2960 H   0  0  0  0  0  0  0  0  0  0  0  0
    7.7950    4.3300   13.9600 H   0  0  0  0  0  0  0  0  0  0  0  0
    6.9770    5.8690   14.3010 H   0  0  0  0  0  0  0  0  0  0  0  0
    5.7320    3.0850   14.3560 H   0  0  0  0  0  0  0  0  0  0  0  0
    5.1480    4.5010   13.4560 H   0  0  0  0  0  0  0  0  0  0  0  0
    4.1470    3.8840   15.9480 H   0  0  0  0  0  0  0  0  0  0  0  0
    4.4160    5.5830   15.4790 H   0  0  0  0  0  0  0  0  0  0  0  0
    1.4450    2.6660   19.3480 C   0  0  0  0  0  0  0  0  0  0  0  0
    0.4430    2.6130   18.4230 F   0  0  0  0  0  0  0  0  0  0  0  0
    0.8270    2.6190   20.5620 F   0  0  0  0  0  0  0  0  0  0  0  0
    2.1280    1.4930   19.2270 F   0  0  0  0  0  0  0  0  0  0  0  0
  1  2  1  0  0  0  0
  2  3  2  0  0  0  0
  4  1  1  0  0  0  0
  5 10  1  0  0  0  0
  5 15  1  0  0  0  0
  6  5  2  0  0  0  0
  7  8  2  0  0  0  0
  7  6  1  0  0  0  0
  8  9  1  0  0  0  0
  9  1  1  0  0  0  0
  9 10  2  0  0  0  0
 10 14  1  0  0  0  0
 11  6  1  0  0  0  0
 12  7  1  0  0  0  0
 13  8  1  0  0  0  0
 15 21  1  0  0  0  0
 15 16  1  1  0  0  0
 17 20  1  0  0  0  0
 17 19  1  0  0  0  0
 17 15  1  0  0  0  0
 18 17  1  0  0  0  0
 21 22  1  0  0  0  0
 22 23  2  0  0  0  0
 22 26  1  0  0  0  0
 23 24  1  0  0  0  0
 24 25  2  0  0  0  0
 25 27  1  0  0  0  0
 26 28  1  0  0  0  0
 26 25  1  0  0  0  0
 28 29  1  0  0  0  0
 30 28  1  0  0  0  0
 31 28  1  0  0  0  0
 32 37  1  0  0  0  0
 32  2  1  0  0  0  0
 33 32  2  0  0  0  0
 34 35  2  0  0  0  0
 34 33  1  0  0  0  0
 35 36  1  0  0  0  0
 36 55  1  0  0  0  0
 36 37  2  0  0  0  0
 38 33  1  0  0  0  0
 39 35  1  0  0  0  0
 40 34  1  0  0  0  0
 40 41  2  0  0  0  0
 42 40  1  0  0  0  0
 43 48  1  0  0  0  0
 43 47  1  0  0  0  0
 43 42  1  0  0  0  0
 44 43  1  0  0  0  0
 45 44  1  0  0  0  0
 45 46  1  0  0  0  0
 46 53  1  0  0  0  0
 46 42  1  0  0  0  0
 49 44  1  0  0  0  0
 50 44  1  0  0  0  0
 51 45  1  0  0  0  0
 52 45  1  0  0  0  0
 54 46  1  0  0  0  0
 55 57  1  0  0  0  0
 56 55  1  0  0  0  0
 58 55  1  0  0  0  0
M  END
>  <MODEL>
9

>  <REMARK>
 VINA RESULT:    -8.180      2.274      3.411
 INTER + INTRA:         -13.050
 INTER:                 -12.133
 INTRA:                  -0.916
 UNBOUND:                -1.044
  Name = 
  9 active torsions:
  status: ('A' for Active; 'I' for Inactive)
    1  A    between atoms: C_1  and  C_2
    2  A    between atoms: C_2  and  S_3
    3  A    between atoms: C_2  and  C_10
    4  A    between atoms: S_3  and  C_4
    5  A    between atoms: N_8  and  C_9
    6  A    between atoms: C_14  and  N_15
    7  A    between atoms: C_16  and  C_18
    8  A    between atoms: C_20  and  C_21
    9  A    between atoms: C_29  and  C_30
                            x       y       z     vdW  Elec       q    Type
                         _______ _______ _______ _____ _____    ______ ____

>  <TORSDO>
F 9

$$$$
=
 OpenBabel07192307433D

 58 61  0  0  1  0  0  0  0  0999 V2000
    1.2160    8.6740   19.5060 N   0  0  0  0  0  0  0  0  0  0  0  0
    2.0550    8.2850   18.4800 C   0  0  0  0  0  0  0  0  0  0  0  0
    2.2820    8.8800   17.4330 O   0  0  0  0  0  0  0  0  0  0  0  0
    1.1960    8.0340   20.2960 H   0  0  0  0  0  0  0  0  0  0  0  0
   -0.5840   11.5410   21.0230 C   0  0  0  0  0  0  0  0  0  0  0  0
   -1.2310   12.0740   19.9020 C   0  0  0  0  0  0  0  0  0  0  0  0
   -1.0680   11.4950   18.6430 C   0  0  0  0  0  0  0  0  0  0  0  0
   -0.2580   10.3690   18.4820 C   0  0  0  0  0  0  0  0  0  0  0  0
    0.3970    9.8150   19.5780 C   0  0  0  0  0  0  0  0  0  0  0  0
    0.2370   10.4100   20.8390 C   0  0  0  0  0  0  0  0  0  0  0  0
   -1.8700   12.9510   19.9870 H   0  0  0  0  0  0  0  0  0  0  0  0
   -1.5720   11.9250   17.7820 H   0  0  0  0  0  0  0  0  0  0  0  0
   -0.1640    9.9480   17.4860 H   0  0  0  0  0  0  0  0  0  0  0  0
    0.7570    9.9880   21.6980 H   0  0  0  0  0  0  0  0  0  0  0  0
   -0.7320   12.1420   22.4110 C   0  0  2  0  0  0  0  0  0  0  0  0
    0.1930   11.8940   22.9490 H   0  0  0  0  0  0  0  0  0  0  0  0
   -1.8360   11.5140   23.2700 C   0  0  0  0  0  0  0  0  0  0  0  0
   -2.8200   11.5150   22.7950 H   0  0  0  0  0  0  0  0  0  0  0  0
   -1.5900   10.4650   23.4740 H   0  0  0  0  0  0  0  0  0  0  0  0
   -1.9200   12.0220   24.2370 H   0  0  0  0  0  0  0  0  0  0  0  0
   -0.7070   13.9670   22.3950 S   0  0  0  0  0  0  0  0  0  0  0  0
   -1.9490   14.4630   23.4830 C   0  0  0  0  0  0  0  0  0  0  0  0
   -1.8340   14.7850   24.7490 N   0  0  0  0  0  0  0  0  0  0  0  0
   -3.0740   15.1760   25.2030 N   0  0  0  0  0  0  0  0  0  0  0  0
   -3.9110   15.0800   24.1950 C   0  0  0  0  0  0  0  0  0  0  0  0
   -3.2530   14.6090   23.0990 N   0  0  0  0  0  0  0  0  0  0  0  0
   -4.9650   15.3270   24.2150 H   0  0  0  0  0  0  0  0  0  0  0  0
   -3.8400   14.3450   21.8150 C   0  0  0  0  0  0  0  0  0  0  0  0
   -3.0990   14.5250   21.0310 H   0  0  0  0  0  0  0  0  0  0  0  0
   -4.6870   15.0200   21.6710 H   0  0  0  0  0  0  0  0  0  0  0  0
   -4.1660   13.3020   21.7820 H   0  0  0  0  0  0  0  0  0  0  0  0
    2.7430    6.9810   18.7560 C   0  0  0  0  0  0  0  0  0  0  0  0
    4.0060    6.7410   18.2500 C   0  0  0  0  0  0  0  0  0  0  0  0
    4.5940    5.5230   18.5670 C   0  0  0  0  0  0  0  0  0  0  0  0
    3.9080    4.5720   19.3290 C   0  0  0  0  0  0  0  0  0  0  0  0
    2.6310    4.8810   19.7890 C   0  0  0  0  0  0  0  0  0  0  0  0
    2.0480    6.0880   19.5240 N   0  0  0  0  0  0  0  0  0  0  0  0
    4.5190    7.4700   17.6320 H   0  0  0  0  0  0  0  0  0  0  0  0
    4.3570    3.6020   19.5370 H   0  0  0  0  0  0  0  0  0  0  0  0
    5.9360    5.2200   18.0350 C   0  0  0  0  0  0  0  0  0  0  0  0
    6.8710    5.1820   18.8240 O   0  0  0  0  0  0  0  0  0  0  0  0
    6.0600    5.0010   16.6790 N   0  0  0  0  0  0  0  0  0  0  0  0
    7.3540    4.6810   16.1010 C   0  0  0  0  0  0  0  0  0  0  0  0
    7.0910    4.6490   14.6040 C   0  0  0  0  0  0  0  0  0  0  0  0
    5.6640    4.1190   14.5290 C   0  0  0  0  0  0  0  0  0  0  0  0
    4.9860    4.7860   15.7160 C   0  0  0  0  0  0  0  0  0  0  0  0
    8.1050    5.4210   16.3960 H   0  0  0  0  0  0  0  0  0  0  0  0
    7.6590    3.6970   16.4760 H   0  0  0  0  0  0  0  0  0  0  0  0
    7.8090    4.0310   14.0640 H   0  0  0  0  0  0  0  0  0  0  0  0
    7.1260    5.6650   14.1920 H   0  0  0  0  0  0  0  0  0  0  0  0
    5.6650    3.0300   14.6640 H   0  0  0  0  0  0  0  0  0  0  0  0
    5.1720    4.3470   13.5790 H   0  0  0  0  0  0  0  0  0  0  0  0
    4.1900    4.1750   16.1480 H   0  0  0  0  0  0  0  0  0  0  0  0
    4.5820    5.7620   15.4360 H   0  0  0  0  0  0  0  0  0  0  0  0
    1.8740    3.8400   20.6040 C   0  0  0  0  0  0  0  0  0  0  0  0
    0.5220    3.9930   20.5090 F   0  0  0  0  0  0  0  0  0  0  0  0
    2.1600    3.9140   21.9350 F   0  0  0  0  0  0  0  0  0  0  0  0
    2.1320    2.5540   20.2340 F   0  0  0  0  0  0  0  0  0  0  0  0
  1  9  1  0  0  0  0
  1  4  1  0  0  0  0
  2 32  1  0  0  0  0
  2  1  1  0  0  0  0
  3  2  2  0  0  0  0
  5 15  1  0  0  0  0
  6 11  1  0  0  0  0
  6  5  2  0  0  0  0
  7  6  1  0  0  0  0
  8  7  2  0  0  0  0
  8  9  1  0  0  0  0
  9 10  2  0  0  0  0
 10  5  1  0  0  0  0
 10 14  1  0  0  0  0
 12  7  1  0  0  0  0
 13  8  1  0  0  0  0
 15 16  1  1  0  0  0
 15 17  1  0  0  0  0
 17 19  1  0  0  0  0
 17 20  1  0  0  0  0
 18 17  1  0  0  0  0
 21 15  1  0  0  0  0
 21 22  1  0  0  0  0
 22 23  2  0  0  0  0
 23 24  1  0  0  0  0
 25 27  1  0  0  0  0
 25 24  2  0  0  0  0
 26 22  1  0  0  0  0
 26 25  1  0  0  0  0
 28 26  1  0  0  0  0
 29 28  1  0  0  0  0
 30 28  1  0  0  0  0
 31 28  1  0  0  0  0
 32 37  1  0  0  0  0
 33 34  1  0  0  0  0
 33 32  2  0  0  0  0
 34 35  2  0  0  0  0
 35 39  1  0  0  0  0
 35 36  1  0  0  0  0
 36 55  1  0  0  0  0
 37 36  2  0  0  0  0
 38 33  1  0  0  0  0
 40 34  1  0  0  0  0
 40 41  2  0  0  0  0
 42 40  1  0  0  0  0
 43 47  1  0  0  0  0
 43 48  1  0  0  0  0
 43 42  1  0  0  0  0
 44 43  1  0  0  0  0
 45 44  1  0  0  0  0
 45 51  1  0  0  0  0
 45 46  1  0  0  0  0
 46 53  1  0  0  0  0
 46 42  1  0  0  0  0
 49 44  1  0  0  0  0
 50 44  1  0  0  0  0
 52 45  1  0  0  0  0
 54 46  1  0  0  0  0
 55 57  1  0  0  0  0
 56 55  1  0  0  0  0
 58 55  1  0  0  0  0
M  END
>  <MODEL>
10

>  <REMARK>
 VINA RESULT:    -8.138      3.013      3.885
 INTER + INTRA:         -12.988
 INTER:                 -12.208
 INTRA:                  -0.780
 UNBOUND:                -1.044
  Name = 
  9 active torsions:
  status: ('A' for Active; 'I' for Inactive)
    1  A    between atoms: C_1  and  C_2
    2  A    between atoms: C_2  and  S_3
    3  A    between atoms: C_2  and  C_10
    4  A    between atoms: S_3  and  C_4
    5  A    between atoms: N_8  and  C_9
    6  A    between atoms: C_14  and  N_15
    7  A    between atoms: C_16  and  C_18
    8  A    between atoms: C_20  and  C_21
    9  A    between atoms: C_29  and  C_30
                            x       y       z     vdW  Elec       q    Type
                         _______ _______ _______ _____ _____    ______ ____

>  <TORSDO>
F 9

$$$$
=
 OpenBabel07192307433D

 58 61  0  0  1  0  0  0  0  0999 V2000
    1.1690    8.8160   18.7480 N   0  0  0  0  0  0  0  0  0  0  0  0
    2.3170    8.9140   17.9850 C   0  0  0  0  0  0  0  0  0  0  0  0
    2.7580    9.9100   17.4240 O   0  0  0  0  0  0  0  0  0  0  0  0
    1.0050    7.8920   19.1400 H   0  0  0  0  0  0  0  0  0  0  0  0
   -0.6060   11.4570   20.6540 C   0  0  0  0  0  0  0  0  0  0  0  0
   -1.6200   11.8010   19.7530 C   0  0  0  0  0  0  0  0  0  0  0  0
   -1.7150   11.1700   18.5120 C   0  0  0  0  0  0  0  0  0  0  0  0
   -0.8000   10.1790   18.1500 C   0  0  0  0  0  0  0  0  0  0  0  0
    0.2190    9.8140   19.0260 C   0  0  0  0  0  0  0  0  0  0  0  0
    0.3140   10.4610   20.2680 C   0  0  0  0  0  0  0  0  0  0  0  0
   -2.3520   12.5690   19.9980 H   0  0  0  0  0  0  0  0  0  0  0  0
   -2.5050   11.4540   17.8210 H   0  0  0  0  0  0  0  0  0  0  0  0
   -0.9140    9.7110   17.1780 H   0  0  0  0  0  0  0  0  0  0  0  0
    1.1160   10.1880   20.9510 H   0  0  0  0  0  0  0  0  0  0  0  0
   -0.4650   12.1200   22.0140 C   0  0  2  0  0  0  0  0  0  0  0  0
    0.4370   11.6880   22.4700 H   0  0  0  0  0  0  0  0  0  0  0  0
   -1.5780   11.7860   23.0130 C   0  0  0  0  0  0  0  0  0  0  0  0
   -1.9430   12.6510   23.5730 H   0  0  0  0  0  0  0  0  0  0  0  0
   -2.4420   11.3750   22.4770 H   0  0  0  0  0  0  0  0  0  0  0  0
   -1.2490   11.0260   23.7300 H   0  0  0  0  0  0  0  0  0  0  0  0
   -0.0390   13.8910   21.8930 S   0  0  0  0  0  0  0  0  0  0  0  0
    1.2040   13.9940   20.7010 C   0  0  0  0  0  0  0  0  0  0  0  0
    2.4390   13.5590   20.7810 N   0  0  0  0  0  0  0  0  0  0  0  0
    3.0540   13.8010   19.5730 N   0  0  0  0  0  0  0  0  0  0  0  0
    2.1710   14.3770   18.7900 C   0  0  0  0  0  0  0  0  0  0  0  0
    1.0010   14.5440   19.4670 N   0  0  0  0  0  0  0  0  0  0  0  0
    2.3330   14.6850   17.7650 H   0  0  0  0  0  0  0  0  0  0  0  0
   -0.1880   15.1650   18.9510 C   0  0  0  0  0  0  0  0  0  0  0  0
    0.0710   15.7820   18.0850 H   0  0  0  0  0  0  0  0  0  0  0  0
   -0.6180   15.8000   19.7290 H   0  0  0  0  0  0  0  0  0  0  0  0
   -0.8930   14.3870   18.6510 H   0  0  0  0  0  0  0  0  0  0  0  0
    3.0640    7.6170   17.8910 C   0  0  0  0  0  0  0  0  0  0  0  0
    2.4100    6.4200   18.1140 C   0  0  0  0  0  0  0  0  0  0  0  0
    3.1580    5.2570   17.9830 C   0  0  0  0  0  0  0  0  0  0  0  0
    4.5220    5.3100   17.6820 C   0  0  0  0  0  0  0  0  0  0  0  0
    5.1120    6.5550   17.4860 C   0  0  0  0  0  0  0  0  0  0  0  0
    4.3900    7.7110   17.5700 N   0  0  0  0  0  0  0  0  0  0  0  0
    1.3590    6.3880   18.3810 H   0  0  0  0  0  0  0  0  0  0  0  0
    5.1110    4.3970   17.6230 H   0  0  0  0  0  0  0  0  0  0  0  0
    2.5020    3.9590   18.2290 C   0  0  0  0  0  0  0  0  0  0  0  0
    2.3210    3.2160   17.2720 O   0  0  0  0  0  0  0  0  0  0  0  0
    2.1270    3.6570   19.5210 N   0  0  0  0  0  0  0  0  0  0  0  0
    1.4930    2.3860   19.8250 C   0  0  0  0  0  0  0  0  0  0  0  0
    1.1260    2.5000   21.2960 C   0  0  0  0  0  0  0  0  0  0  0  0
    2.2570    3.3550   21.8550 C   0  0  0  0  0  0  0  0  0  0  0  0
    2.5140    4.3570   20.7410 C   0  0  0  0  0  0  0  0  0  0  0  0
    0.6310    2.2140   19.1730 H   0  0  0  0  0  0  0  0  0  0  0  0
    2.2290    1.5910   19.6570 H   0  0  0  0  0  0  0  0  0  0  0  0
    1.0380    1.5280   21.7850 H   0  0  0  0  0  0  0  0  0  0  0  0
    0.1740    3.0330   21.4080 H   0  0  0  0  0  0  0  0  0  0  0  0
    3.1490    2.7350   22.0130 H   0  0  0  0  0  0  0  0  0  0  0  0
    2.0000    3.8360   22.8050 H   0  0  0  0  0  0  0  0  0  0  0  0
    3.5570    4.6780   20.6920 H   0  0  0  0  0  0  0  0  0  0  0  0
    1.8690    5.2330   20.8480 H   0  0  0  0  0  0  0  0  0  0  0  0
    6.6030    6.6180   17.1740 C   0  0  0  0  0  0  0  0  0  0  0  0
    7.0590    7.9000   17.0890 F   0  0  0  0  0  0  0  0  0  0  0  0
    6.9090    6.0380   15.9790 F   0  0  0  0  0  0  0  0  0  0  0  0
    7.3880    6.0020   18.1030 F   0  0  0  0  0  0  0  0  0  0  0  0
  1  9  1  0  0  0  0
  1  4  1  0  0  0  0
  2  1  1  0  0  0  0
  3  2  2  0  0  0  0
  5 15  1  0  0  0  0
  6 11  1  0  0  0  0
  6  5  2  0  0  0  0
  7  6  1  0  0  0  0
  8  7  2  0  0  0  0
  8  9  1  0  0  0  0
  9 10  2  0  0  0  0
 10  5  1  0  0  0  0
 10 14  1  0  0  0  0
 12  7  1  0  0  0  0
 13  8  1  0  0  0  0
 15 16  1  1  0  0  0
 15 17  1  0  0  0  0
 17 18  1  0  0  0  0
 17 20  1  0  0  0  0
 19 17  1  0  0  0  0
 21 15  1  0  0  0  0
 22 23  2  0  0  0  0
 22 21  1  0  0  0  0
 24 23  1  0  0  0  0
 25 26  1  0  0  0  0
 25 24  2  0  0  0  0
 26 22  1  0  0  0  0
 27 25  1  0  0  0  0
 28 26  1  0  0  0  0
 28 30  1  0  0  0  0
 29 28  1  0  0  0  0
 31 28  1  0  0  0  0
 32  2  1  0  0  0  0
 32 33  1  0  0  0  0
 33 38  1  0  0  0  0
 34 33  2  0  0  0  0
 34 40  1  0  0  0  0
 35 34  1  0  0  0  0
 36 37  1  0  0  0  0
 36 35  2  0  0  0  0
 37 32  2  0  0  0  0
 39 35  1  0  0  0  0
 40 42  1  0  0  0  0
 41 40  2  0  0  0  0
 42 43  1  0  0  0  0
 42 46  1  0  0  0  0
 43 44  1  0  0  0  0
 44 50  1  0  0  0  0
 44 49  1  0  0  0  0
 44 45  1  0  0  0  0
 45 51  1  0  0  0  0
 45 52  1  0  0  0  0
 46 54  1  0  0  0  0
 46 45  1  0  0  0  0
 47 43  1  0  0  0  0
 48 43  1  0  0  0  0
 53 46  1  0  0  0  0
 55 36  1  0  0  0  0
 55 58  1  0  0  0  0
 56 55  1  0  0  0  0
 57 55  1  0  0  0  0
M  END
>  <MODEL>
11

>  <REMARK>
 VINA RESULT:    -7.962      3.454      5.250
 INTER + INTRA:         -12.730
 INTER:                 -11.407
 INTRA:                  -1.323
 UNBOUND:                -1.044
  Name = 
  9 active torsions:
  status: ('A' for Active; 'I' for Inactive)
    1  A    between atoms: C_1  and  C_2
    2  A    between atoms: C_2  and  S_3
    3  A    between atoms: C_2  and  C_10
    4  A    between atoms: S_3  and  C_4
    5  A    between atoms: N_8  and  C_9
    6  A    between atoms: C_14  and  N_15
    7  A    between atoms: C_16  and  C_18
    8  A    between atoms: C_20  and  C_21
    9  A    between atoms: C_29  and  C_30
                            x       y       z     vdW  Elec       q    Type
                         _______ _______ _______ _____ _____    ______ ____

>  <TORSDO>
F 9

$$$$
=
 OpenBabel07192307433D

 58 61  0  0  1  0  0  0  0  0999 V2000
    1.2290    8.4230   18.8400 N   0  0  0  0  0  0  0  0  0  0  0  0
    1.6140    7.8440   20.0330 C   0  0  0  0  0  0  0  0  0  0  0  0
    1.4280    8.2700   21.1670 O   0  0  0  0  0  0  0  0  0  0  0  0
    1.4690    7.8810   18.0140 H   0  0  0  0  0  0  0  0  0  0  0  0
    0.7000   12.0950   18.8230 C   0  0  0  0  0  0  0  0  0  0  0  0
   -0.6080   12.1740   18.3320 C   0  0  0  0  0  0  0  0  0  0  0  0
   -1.3150   11.0190   17.9970 C   0  0  0  0  0  0  0  0  0  0  0  0
   -0.7290    9.7610   18.1510 C   0  0  0  0  0  0  0  0  0  0  0  0
    0.5710    9.6500   18.6390 C   0  0  0  0  0  0  0  0  0  0  0  0
    1.2790   10.8170   18.9630 C   0  0  0  0  0  0  0  0  0  0  0  0
   -1.1000   13.1360   18.1970 H   0  0  0  0  0  0  0  0  0  0  0  0
   -2.3280   11.0980   17.6110 H   0  0  0  0  0  0  0  0  0  0  0  0
   -1.3160    8.8890   17.8830 H   0  0  0  0  0  0  0  0  0  0  0  0
    2.3000   10.7360   19.3330 H   0  0  0  0  0  0  0  0  0  0  0  0
    1.5060   13.3280   19.1970 C   0  0  2  0  0  0  0  0  0  0  0  0
    0.8780   14.1910   18.9350 H   0  0  0  0  0  0  0  0  0  0  0  0
    2.7820   13.5380   18.3740 C   0  0  0  0  0  0  0  0  0  0  0  0
    2.7470   13.0790   17.3820 H   0  0  0  0  0  0  0  0  0  0  0  0
    2.9440   14.6100   18.2140 H   0  0  0  0  0  0  0  0  0  0  0  0
    3.6600   13.1510   18.9010 H   0  0  0  0  0  0  0  0  0  0  0  0
    1.7080   13.5160   21.0010 S   0  0  0  0  0  0  0  0  0  0  0  0
    0.1180   13.7410   21.6300 C   0  0  0  0  0  0  0  0  0  0  0  0
   -0.5690   14.8550   21.7130 N   0  0  0  0  0  0  0  0  0  0  0  0
   -1.8110   14.5520   22.2240 N   0  0  0  0  0  0  0  0  0  0  0  0
   -1.8450   13.2570   22.4360 C   0  0  0  0  0  0  0  0  0  0  0  0
   -0.6420   12.7090   22.1030 N   0  0  0  0  0  0  0  0  0  0  0  0
   -2.6860   12.6950   22.8220 H   0  0  0  0  0  0  0  0  0  0  0  0
   -0.2880   11.3220   22.2260 C   0  0  0  0  0  0  0  0  0  0  0  0
   -0.8010   10.7450   21.4510 H   0  0  0  0  0  0  0  0  0  0  0  0
   -0.6040   10.9650   23.2090 H   0  0  0  0  0  0  0  0  0  0  0  0
    0.7930   11.2200   22.1050 H   0  0  0  0  0  0  0  0  0  0  0  0
    2.3270    6.5370   19.8410 C   0  0  0  0  0  0  0  0  0  0  0  0
    3.6350    6.5180   19.3960 C   0  0  0  0  0  0  0  0  0  0  0  0
    4.2400    5.2740   19.2660 C   0  0  0  0  0  0  0  0  0  0  0  0
    3.5310    4.0990   19.5340 C   0  0  0  0  0  0  0  0  0  0  0  0
    2.2110    4.2010   19.9620 C   0  0  0  0  0  0  0  0  0  0  0  0
    1.6060    5.4130   20.1360 N   0  0  0  0  0  0  0  0  0  0  0  0
    4.1680    7.4320   19.1590 H   0  0  0  0  0  0  0  0  0  0  0  0
    3.9980    3.1270   19.3880 H   0  0  0  0  0  0  0  0  0  0  0  0
    5.6310    5.2070   18.7800 C   0  0  0  0  0  0  0  0  0  0  0  0
    6.5330    5.3540   19.5960 O   0  0  0  0  0  0  0  0  0  0  0  0
    5.8370    4.9870   17.4340 N   0  0  0  0  0  0  0  0  0  0  0  0
    7.1850    4.8940   16.9020 C   0  0  0  0  0  0  0  0  0  0  0  0
    6.9810    4.7860   15.3990 C   0  0  0  0  0  0  0  0  0  0  0  0
    5.6750    4.0060   15.2970 C   0  0  0  0  0  0  0  0  0  0  0  0
    4.8500    4.5640   16.4470 C   0  0  0  0  0  0  0  0  0  0  0  0
    7.7820    5.7630   17.1990 H   0  0  0  0  0  0  0  0  0  0  0  0
    7.6490    3.9890   17.3090 H   0  0  0  0  0  0  0  0  0  0  0  0
    7.8160    4.2960   14.8950 H   0  0  0  0  0  0  0  0  0  0  0  0
    6.8470    5.7830   14.9630 H   0  0  0  0  0  0  0  0  0  0  0  0
    5.8670    2.9380   15.4590 H   0  0  0  0  0  0  0  0  0  0  0  0
    5.1810    4.1240   14.3270 H   0  0  0  0  0  0  0  0  0  0  0  0
    4.1640    3.8280   16.8710 H   0  0  0  0  0  0  0  0  0  0  0  0
    4.2870    5.4460   16.1310 H   0  0  0  0  0  0  0  0  0  0  0  0
    1.4300    2.9220   20.2380 C   0  0  0  0  0  0  0  0  0  0  0  0
    0.1880    2.9440   19.6750 F   0  0  0  0  0  0  0  0  0  0  0  0
    1.2270    2.7130   21.5690 F   0  0  0  0  0  0  0  0  0  0  0  0
    2.0340    1.7940   19.7670 F   0  0  0  0  0  0  0  0  0  0  0  0
  1  2  1  0  0  0  0
  2  3  2  0  0  0  0
  4  1  1  0  0  0  0
  5 10  1  0  0  0  0
  5 15  1  0  0  0  0
  6  5  2  0  0  0  0
  7  8  2  0  0  0  0
  7  6  1  0  0  0  0
  8  9  1  0  0  0  0
  9  1  1  0  0  0  0
  9 10  2  0  0  0  0
 10 14  1  0  0  0  0
 11  6  1  0  0  0  0
 12  7  1  0  0  0  0
 13  8  1  0  0  0  0
 15 16  1  6  0  0  0
 15 21  1  0  0  0  0
 17 20  1  0  0  0  0
 17 15  1  0  0  0  0
 18 17  1  0  0  0  0
 19 17  1  0  0  0  0
 21 22  1  0  0  0  0
 22 23  2  0  0  0  0
 22 26  1  0  0  0  0
 23 24  1  0  0  0  0
 24 25  2  0  0  0  0
 25 27  1  0  0  0  0
 26 28  1  0  0  0  0
 26 25  1  0  0  0  0
 28 30  1  0  0  0  0
 29 28  1  0  0  0  0
 31 28  1  0  0  0  0
 32  2  1  0  0  0  0
 32 37  1  0  0  0  0
 33 32  2  0  0  0  0
 34 33  1  0  0  0  0
 34 35  2  0  0  0  0
 35 36  1  0  0  0  0
 36 37  2  0  0  0  0
 36 55  1  0  0  0  0
 38 33  1  0  0  0  0
 39 35  1  0  0  0  0
 40 34  1  0  0  0  0
 40 41  2  0  0  0  0
 42 40  1  0  0  0  0
 43 47  1  0  0  0  0
 43 48  1  0  0  0  0
 43 42  1  0  0  0  0
 44 43  1  0  0  0  0
 45 44  1  0  0  0  0
 45 51  1  0  0  0  0
 45 46  1  0  0  0  0
 46 53  1  0  0  0  0
 46 42  1  0  0  0  0
 49 44  1  0  0  0  0
 50 44  1  0  0  0  0
 52 45  1  0  0  0  0
 54 46  1  0  0  0  0
 55 57  1  0  0  0  0
 56 55  1  0  0  0  0
 58 55  1  0  0  0  0
M  END
>  <MODEL>
12

>  <REMARK>
 VINA RESULT:    -7.954      2.419      3.501
 INTER + INTRA:         -12.717
 INTER:                 -11.463
 INTRA:                  -1.255
 UNBOUND:                -1.044
  Name = 
  9 active torsions:
  status: ('A' for Active; 'I' for Inactive)
    1  A    between atoms: C_1  and  C_2
    2  A    between atoms: C_2  and  S_3
    3  A    between atoms: C_2  and  C_10
    4  A    between atoms: S_3  and  C_4
    5  A    between atoms: N_8  and  C_9
    6  A    between atoms: C_14  and  N_15
    7  A    between atoms: C_16  and  C_18
    8  A    between atoms: C_20  and  C_21
    9  A    between atoms: C_29  and  C_30
                            x       y       z     vdW  Elec       q    Type
                         _______ _______ _______ _____ _____    ______ ____

>  <TORSDO>
F 9

$$$$
=
 OpenBabel07192307433D

 58 61  0  0  1  0  0  0  0  0999 V2000
    0.7670    8.8140   17.8460 N   0  0  0  0  0  0  0  0  0  0  0  0
    2.1380    8.9830   17.8290 C   0  0  0  0  0  0  0  0  0  0  0  0
    2.7610   10.0380   17.8510 O   0  0  0  0  0  0  0  0  0  0  0  0
    0.4650    7.8430   17.8440 H   0  0  0  0  0  0  0  0  0  0  0  0
   -0.9310   12.0020   18.6910 C   0  0  0  0  0  0  0  0  0  0  0  0
   -2.1410   11.8510   18.0030 C   0  0  0  0  0  0  0  0  0  0  0  0
   -2.3950   10.7030   17.2510 C   0  0  0  0  0  0  0  0  0  0  0  0
   -1.4460    9.6810   17.1780 C   0  0  0  0  0  0  0  0  0  0  0  0
   -0.2340    9.8020   17.8530 C   0  0  0  0  0  0  0  0  0  0  0  0
    0.0180   10.9640   18.5980 C   0  0  0  0  0  0  0  0  0  0  0  0
   -2.9050   12.6250   18.0340 H   0  0  0  0  0  0  0  0  0  0  0  0
   -3.3360   10.6050   16.7170 H   0  0  0  0  0  0  0  0  0  0  0  0
   -1.6870    8.8040   16.5870 H   0  0  0  0  0  0  0  0  0  0  0  0
    0.9690   11.0690   19.1180 H   0  0  0  0  0  0  0  0  0  0  0  0
   -0.6140   13.2360   19.5180 C   0  0  2  0  0  0  0  0  0  0  0  0
   -1.5390   13.4870   20.0550 H   0  0  0  0  0  0  0  0  0  0  0  0
   -0.3090   14.4980   18.7020 C   0  0  0  0  0  0  0  0  0  0  0  0
    0.7550   14.7470   18.6560 H   0  0  0  0  0  0  0  0  0  0  0  0
   -0.6400   14.3550   17.6670 H   0  0  0  0  0  0  0  0  0  0  0  0
   -0.8480   15.3640   19.0990 H   0  0  0  0  0  0  0  0  0  0  0  0
    0.5550   12.8920   20.8780 S   0  0  0  0  0  0  0  0  0  0  0  0
   -0.3130   11.9180   22.0060 C   0  0  0  0  0  0  0  0  0  0  0  0
   -1.3510   12.2540   22.7340 N   0  0  0  0  0  0  0  0  0  0  0  0
   -1.7520   11.1440   23.4430 N   0  0  0  0  0  0  0  0  0  0  0  0
   -0.9430   10.1600   23.1220 C   0  0  0  0  0  0  0  0  0  0  0  0
   -0.0050   10.6080   22.2420 N   0  0  0  0  0  0  0  0  0  0  0  0
   -0.9950    9.1440   23.4950 H   0  0  0  0  0  0  0  0  0  0  0  0
    1.0670    9.8290   21.6870 C   0  0  0  0  0  0  0  0  0  0  0  0
    1.9890   10.4180   21.6990 H   0  0  0  0  0  0  0  0  0  0  0  0
    0.8180    9.5730   20.6550 H   0  0  0  0  0  0  0  0  0  0  0  0
    1.1990    8.9280   22.2890 H   0  0  0  0  0  0  0  0  0  0  0  0
    2.8830    7.6820   17.7910 C   0  0  0  0  0  0  0  0  0  0  0  0
    2.2190    6.4930   18.0290 C   0  0  0  0  0  0  0  0  0  0  0  0
    2.9660    5.3250   17.9520 C   0  0  0  0  0  0  0  0  0  0  0  0
    4.3390    5.3670   17.6880 C   0  0  0  0  0  0  0  0  0  0  0  0
    4.9390    6.6050   17.4750 C   0  0  0  0  0  0  0  0  0  0  0  0
    4.2180    7.7640   17.5060 N   0  0  0  0  0  0  0  0  0  0  0  0
    1.1610    6.4720   18.2660 H   0  0  0  0  0  0  0  0  0  0  0  0
    4.9270    4.4510   17.6710 H   0  0  0  0  0  0  0  0  0  0  0  0
    2.3000    4.0360   18.2140 C   0  0  0  0  0  0  0  0  0  0  0  0
    2.0360    3.3200   17.2560 O   0  0  0  0  0  0  0  0  0  0  0  0
    2.0090    3.7120   19.5230 N   0  0  0  0  0  0  0  0  0  0  0  0
    1.3700    2.4480   19.8430 C   0  0  0  0  0  0  0  0  0  0  0  0
    1.1090    2.5350   21.3380 C   0  0  0  0  0  0  0  0  0  0  0  0
    2.2960    3.3520   21.8350 C   0  0  0  0  0  0  0  0  0  0  0  0
    2.4970    4.3740   20.7270 C   0  0  0  0  0  0  0  0  0  0  0  0
    0.4600    2.3100   19.2490 H   0  0  0  0  0  0  0  0  0  0  0  0
    2.0740    1.6410   19.6050 H   0  0  0  0  0  0  0  0  0  0  0  0
    1.0340    1.5540   21.8100 H   0  0  0  0  0  0  0  0  0  0  0  0
    0.1800    3.0850   21.5280 H   0  0  0  0  0  0  0  0  0  0  0  0
    3.1820    2.7090   21.9150 H   0  0  0  0  0  0  0  0  0  0  0  0
    2.1170    3.8160   22.8100 H   0  0  0  0  0  0  0  0  0  0  0  0
    3.5410    4.6740   20.6120 H   0  0  0  0  0  0  0  0  0  0  0  0
    1.8820    5.2610   20.8980 H   0  0  0  0  0  0  0  0  0  0  0  0
    6.4370    6.6550   17.2040 C   0  0  0  0  0  0  0  0  0  0  0  0
    6.7680    6.0650   16.0190 F   0  0  0  0  0  0  0  0  0  0  0  0
    7.1600    5.9990   18.1550 F   0  0  0  0  0  0  0  0  0  0  0  0
    6.9470    7.9180   17.1470 F   0  0  0  0  0  0  0  0  0  0  0  0
  1  9  1  0  0  0  0
  2  1  1  0  0  0  0
  2  3  2  0  0  0  0
  4  1  1  0  0  0  0
  5 15  1  0  0  0  0
  6 11  1  0  0  0  0
  6  5  2  0  0  0  0
  7  6  1  0  0  0  0
  8  7  2  0  0  0  0
  8  9  1  0  0  0  0
  9 10  2  0  0  0  0
 10  5  1  0  0  0  0
 10 14  1  0  0  0  0
 12  7  1  0  0  0  0
 13  8  1  0  0  0  0
 15 16  1  1  0  0  0
 15 21  1  0  0  0  0
 17 20  1  0  0  0  0
 17 15  1  0  0  0  0
 18 17  1  0  0  0  0
 19 17  1  0  0  0  0
 21 22  1  0  0  0  0
 22 26  1  0  0  0  0
 22 23  2  0  0  0  0
 23 24  1  0  0  0  0
 25 24  2  0  0  0  0
 25 27  1  0  0  0  0
 26 25  1  0  0  0  0
 28 29  1  0  0  0  0
 28 26  1  0  0  0  0
 28 31  1  0  0  0  0
 30 28  1  0  0  0  0
 32  2  1  0  0  0  0
 32 33  1  0  0  0  0
 33 38  1  0  0  0  0
 34 33  2  0  0  0  0
 34 40  1  0  0  0  0
 35 34  1  0  0  0  0
 36 37  1  0  0  0  0
 36 35  2  0  0  0  0
 37 32  2  0  0  0  0
 39 35  1  0  0  0  0
 40 42  1  0  0  0  0
 41 40  2  0  0  0  0
 42 43  1  0  0  0  0
 42 46  1  0  0  0  0
 43 44  1  0  0  0  0
 44 50  1  0  0  0  0
 44 49  1  0  0  0  0
 44 45  1  0  0  0  0
 45 51  1  0  0  0  0
 45 52  1  0  0  0  0
 46 54  1  0  0  0  0
 46 45  1  0  0  0  0
 47 43  1  0  0  0  0
 48 43  1  0  0  0  0
 53 46  1  0  0  0  0
 55 36  1  0  0  0  0
 55 57  1  0  0  0  0
 56 55  1  0  0  0  0
 58 55  1  0  0  0  0
M  END
>  <MODEL>
13

>  <REMARK>
 VINA RESULT:    -7.881      3.248      5.394
 INTER + INTRA:         -12.610
 INTER:                 -11.658
 INTRA:                  -0.953
 UNBOUND:                -1.044
  Name = 
  9 active torsions:
  status: ('A' for Active; 'I' for Inactive)
    1  A    between atoms: C_1  and  C_2
    2  A    between atoms: C_2  and  S_3
    3  A    between atoms: C_2  and  C_10
    4  A    between atoms: S_3  and  C_4
    5  A    between atoms: N_8  and  C_9
    6  A    between atoms: C_14  and  N_15
    7  A    between atoms: C_16  and  C_18
    8  A    between atoms: C_20  and  C_21
    9  A    between atoms: C_29  and  C_30
                            x       y       z     vdW  Elec       q    Type
                         _______ _______ _______ _____ _____    ______ ____

>  <TORSDO>
F 9

$$$$
=
 OpenBabel07192307433D

 58 61  0  0  1  0  0  0  0  0999 V2000
    1.1650    8.7390   18.6440 N   0  0  0  0  0  0  0  0  0  0  0  0
    2.3690    8.8600   17.9780 C   0  0  0  0  0  0  0  0  0  0  0  0
    2.8560    9.8740   17.4920 O   0  0  0  0  0  0  0  0  0  0  0  0
    0.9680    7.8020   18.9860 H   0  0  0  0  0  0  0  0  0  0  0  0
   -0.7470   11.3130   20.5100 C   0  0  0  0  0  0  0  0  0  0  0  0
   -1.6850   11.7010   19.5460 C   0  0  0  0  0  0  0  0  0  0  0  0
   -1.6830   11.1210   18.2770 C   0  0  0  0  0  0  0  0  0  0  0  0
   -0.7460   10.1390   17.9490 C   0  0  0  0  0  0  0  0  0  0  0  0
    0.1990    9.7320   18.8870 C   0  0  0  0  0  0  0  0  0  0  0  0
    0.1980   10.3270   20.1580 C   0  0  0  0  0  0  0  0  0  0  0  0
   -2.4310   12.4630   19.7630 H   0  0  0  0  0  0  0  0  0  0  0  0
   -2.4140   11.4380   17.5380 H   0  0  0  0  0  0  0  0  0  0  0  0
   -0.7840    9.7120   16.9520 H   0  0  0  0  0  0  0  0  0  0  0  0
    0.9420   10.0210   20.8910 H   0  0  0  0  0  0  0  0  0  0  0  0
   -0.7120   11.9200   21.9030 C   0  0  2  0  0  0  0  0  0  0  0  0
    0.3490   12.0910   22.1320 H   0  0  0  0  0  0  0  0  0  0  0  0
   -1.1850   10.9880   23.0240 C   0  0  0  0  0  0  0  0  0  0  0  0
   -1.8790   11.4590   23.7260 H   0  0  0  0  0  0  0  0  0  0  0  0
   -1.7140   10.1310   22.5910 H   0  0  0  0  0  0  0  0  0  0  0  0
   -0.3360   10.5930   23.5930 H   0  0  0  0  0  0  0  0  0  0  0  0
   -1.4060   13.6080   21.9530 S   0  0  0  0  0  0  0  0  0  0  0  0
   -3.0110   13.4370   22.5610 C   0  0  0  0  0  0  0  0  0  0  0  0
   -4.0260   12.8210   22.0030 N   0  0  0  0  0  0  0  0  0  0  0  0
   -5.0920   12.8840   22.8720 N   0  0  0  0  0  0  0  0  0  0  0  0
   -4.6920   13.5370   23.9390 C   0  0  0  0  0  0  0  0  0  0  0  0
   -3.3970   13.9290   23.7760 N   0  0  0  0  0  0  0  0  0  0  0  0
   -5.2870   13.7480   24.8180 H   0  0  0  0  0  0  0  0  0  0  0  0
   -2.6250   14.6920   24.7170 C   0  0  0  0  0  0  0  0  0  0  0  0
   -1.8150   15.2050   24.1910 H   0  0  0  0  0  0  0  0  0  0  0  0
   -2.1980   14.0090   25.4560 H   0  0  0  0  0  0  0  0  0  0  0  0
   -3.2760   15.4250   25.1970 H   0  0  0  0  0  0  0  0  0  0  0  0
    3.1170    7.5620   17.8910 C   0  0  0  0  0  0  0  0  0  0  0  0
    2.4620    6.3660   18.1180 C   0  0  0  0  0  0  0  0  0  0  0  0
    3.2110    5.2030   17.9940 C   0  0  0  0  0  0  0  0  0  0  0  0
    4.5760    5.2550   17.6960 C   0  0  0  0  0  0  0  0  0  0  0  0
    5.1670    6.5000   17.4970 C   0  0  0  0  0  0  0  0  0  0  0  0
    4.4440    7.6560   17.5730 N   0  0  0  0  0  0  0  0  0  0  0  0
    1.4110    6.3350   18.3810 H   0  0  0  0  0  0  0  0  0  0  0  0
    5.1660    4.3420   17.6430 H   0  0  0  0  0  0  0  0  0  0  0  0
    2.5550    3.9050   18.2430 C   0  0  0  0  0  0  0  0  0  0  0  0
    2.3940    3.1510   17.2910 O   0  0  0  0  0  0  0  0  0  0  0  0
    2.1580    3.6170   19.5320 N   0  0  0  0  0  0  0  0  0  0  0  0
    1.5230    2.3480   19.8400 C   0  0  0  0  0  0  0  0  0  0  0  0
    1.1290    2.4780   21.3020 C   0  0  0  0  0  0  0  0  0  0  0  0
    2.2470    3.3430   21.8710 C   0  0  0  0  0  0  0  0  0  0  0  0
    2.5210    4.3330   20.7500 C   0  0  0  0  0  0  0  0  0  0  0  0
    0.6730    2.1660   19.1740 H   0  0  0  0  0  0  0  0  0  0  0  0
    2.2640    1.5530   19.6940 H   0  0  0  0  0  0  0  0  0  0  0  0
    1.0360    1.5120   21.8010 H   0  0  0  0  0  0  0  0  0  0  0  0
    0.1740    3.0090   21.3900 H   0  0  0  0  0  0  0  0  0  0  0  0
    3.1380    2.7280   22.0520 H   0  0  0  0  0  0  0  0  0  0  0  0
    1.9720    3.8340   22.8100 H   0  0  0  0  0  0  0  0  0  0  0  0
    3.5640    4.6570   20.7160 H   0  0  0  0  0  0  0  0  0  0  0  0
    1.8720    5.2080   20.8350 H   0  0  0  0  0  0  0  0  0  0  0  0
    6.6580    6.5610   17.1890 C   0  0  0  0  0  0  0  0  0  0  0  0
    7.4080    5.9340   18.1400 F   0  0  0  0  0  0  0  0  0  0  0  0
    7.1260    7.8410   17.1370 F   0  0  0  0  0  0  0  0  0  0  0  0
    7.0010    5.9860   16.0020 F   0  0  0  0  0  0  0  0  0  0  0  0
  1  9  1  0  0  0  0
  1  4  1  0  0  0  0
  2  1  1  0  0  0  0
  3  2  2  0  0  0  0
  5 15  1  0  0  0  0
  6 11  1  0  0  0  0
  6  5  2  0  0  0  0
  7  6  1  0  0  0  0
  8  7  2  0  0  0  0
  8  9  1  0  0  0  0
  9 10  2  0  0  0  0
 10  5  1  0  0  0  0
 10 14  1  0  0  0  0
 12  7  1  0  0  0  0
 13  8  1  0  0  0  0
 15 21  1  0  0  0  0
 15 16  1  1  0  0  0
 15 17  1  0  0  0  0
 17 20  1  0  0  0  0
 17 18  1  0  0  0  0
 19 17  1  0  0  0  0
 21 22  1  0  0  0  0
 22 26  1  0  0  0  0
 23 22  2  0  0  0  0
 23 24  1  0  0  0  0
 24 25  2  0  0  0  0
 25 27  1  0  0  0  0
 26 25  1  0  0  0  0
 26 28  1  0  0  0  0
 28 31  1  0  0  0  0
 28 30  1  0  0  0  0
 29 28  1  0  0  0  0
 32  2  1  0  0  0  0
 32 33  1  0  0  0  0
 33 38  1  0  0  0  0
 34 33  2  0  0  0  0
 34 40  1  0  0  0  0
 35 34  1  0  0  0  0
 36 37  1  0  0  0  0
 36 35  2  0  0  0  0
 37 32  2  0  0  0  0
 39 35  1  0  0  0  0
 40 42  1  0  0  0  0
 41 40  2  0  0  0  0
 42 43  1  0  0  0  0
 42 46  1  0  0  0  0
 43 44  1  0  0  0  0
 44 50  1  0  0  0  0
 44 49  1  0  0  0  0
 44 45  1  0  0  0  0
 45 51  1  0  0  0  0
 45 52  1  0  0  0  0
 46 54  1  0  0  0  0
 46 45  1  0  0  0  0
 47 43  1  0  0  0  0
 48 43  1  0  0  0  0
 53 46  1  0  0  0  0
 55 36  1  0  0  0  0
 55 56  1  0  0  0  0
 57 55  1  0  0  0  0
 58 55  1  0  0  0  0
M  END
>  <MODEL>
14

>  <REMARK>
 VINA RESULT:    -7.847      3.657      5.398
 INTER + INTRA:         -12.561
 INTER:                 -11.471
 INTRA:                  -1.090
 UNBOUND:                -1.044
  Name = 
  9 active torsions:
  status: ('A' for Active; 'I' for Inactive)
    1  A    between atoms: C_1  and  C_2
    2  A    between atoms: C_2  and  S_3
    3  A    between atoms: C_2  and  C_10
    4  A    between atoms: S_3  and  C_4
    5  A    between atoms: N_8  and  C_9
    6  A    between atoms: C_14  and  N_15
    7  A    between atoms: C_16  and  C_18
    8  A    between atoms: C_20  and  C_21
    9  A    between atoms: C_29  and  C_30
                            x       y       z     vdW  Elec       q    Type
                         _______ _______ _______ _____ _____    ______ ____

>  <TORSDO>
F 9

$$$$
=
 OpenBabel07192307433D

 58 61  0  0  1  0  0  0  0  0999 V2000
    1.0810    8.1620   20.1090 N   0  0  0  0  0  0  0  0  0  0  0  0
    0.9480    9.0190   21.1840 C   0  0  0  0  0  0  0  0  0  0  0  0
    1.4660    8.9180   22.2900 O   0  0  0  0  0  0  0  0  0  0  0  0
    0.5770    8.4530   19.2760 H   0  0  0  0  0  0  0  0  0  0  0  0
    3.5230    5.6680   18.8520 C   0  0  0  0  0  0  0  0  0  0  0  0
    3.3020    4.6070   19.7380 C   0  0  0  0  0  0  0  0  0  0  0  0
    2.3540    4.7150   20.7560 C   0  0  0  0  0  0  0  0  0  0  0  0
    1.6060    5.8840   20.9060 C   0  0  0  0  0  0  0  0  0  0  0  0
    1.8030    6.9570   20.0390 C   0  0  0  0  0  0  0  0  0  0  0  0
    2.7650    6.8440   19.0240 C   0  0  0  0  0  0  0  0  0  0  0  0
    3.8650    3.6790   19.6550 H   0  0  0  0  0  0  0  0  0  0  0  0
    2.1990    3.8840   21.4400 H   0  0  0  0  0  0  0  0  0  0  0  0
    0.8760    5.9240   21.7080 H   0  0  0  0  0  0  0  0  0  0  0  0
    2.9310    7.6840   18.3510 H   0  0  0  0  0  0  0  0  0  0  0  0
    4.5460    5.5930   17.7310 C   0  0  2  0  0  0  0  0  0  0  0  0
    5.5280    5.5330   18.2210 H   0  0  0  0  0  0  0  0  0  0  0  0
    4.6450    6.8530   16.8640 C   0  0  0  0  0  0  0  0  0  0  0  0
    3.6770    7.3000   16.6240 H   0  0  0  0  0  0  0  0  0  0  0  0
    5.2200    7.6210   17.3950 H   0  0  0  0  0  0  0  0  0  0  0  0
    5.1700    6.6450   15.9250 H   0  0  0  0  0  0  0  0  0  0  0  0
    4.4660    4.0200   16.8080 S   0  0  0  0  0  0  0  0  0  0  0  0
    5.5600    4.1960   15.4870 C   0  0  0  0  0  0  0  0  0  0  0  0
    5.2970    4.1260   14.2040 N   0  0  0  0  0  0  0  0  0  0  0  0
    6.4600    4.3890   13.5150 N   0  0  0  0  0  0  0  0  0  0  0  0
    7.4010    4.6140   14.4040 C   0  0  0  0  0  0  0  0  0  0  0  0
    6.8870    4.4760   15.6580 N   0  0  0  0  0  0  0  0  0  0  0  0
    8.4320    4.8650   14.1910 H   0  0  0  0  0  0  0  0  0  0  0  0
    7.6180    4.6160   16.8870 C   0  0  0  0  0  0  0  0  0  0  0  0
    6.9280    4.8770   17.6940 H   0  0  0  0  0  0  0  0  0  0  0  0
    8.3520    5.4170   16.7690 H   0  0  0  0  0  0  0  0  0  0  0  0
    8.1120    3.6690   17.1150 H   0  0  0  0  0  0  0  0  0  0  0  0
    0.0640   10.1940   20.8830 C   0  0  0  0  0  0  0  0  0  0  0  0
    0.0060   11.2620   21.7580 C   0  0  0  0  0  0  0  0  0  0  0  0
   -0.8130   12.3260   21.4030 C   0  0  0  0  0  0  0  0  0  0  0  0
   -1.5740   12.2870   20.2310 C   0  0  0  0  0  0  0  0  0  0  0  0
   -1.4730   11.1680   19.4090 C   0  0  0  0  0  0  0  0  0  0  0  0
   -0.6440   10.1260   19.7150 N   0  0  0  0  0  0  0  0  0  0  0  0
    0.5730   11.2710   22.6820 H   0  0  0  0  0  0  0  0  0  0  0  0
   -2.2460   13.1050   19.9800 H   0  0  0  0  0  0  0  0  0  0  0  0
   -0.9160   13.4800   22.3160 C   0  0  0  0  0  0  0  0  0  0  0  0
   -0.0740   14.3640   22.2210 O   0  0  0  0  0  0  0  0  0  0  0  0
   -1.9520   13.4940   23.2270 N   0  0  0  0  0  0  0  0  0  0  0  0
   -2.1140   14.6130   24.1390 C   0  0  0  0  0  0  0  0  0  0  0  0
   -3.2600   14.1890   25.0420 C   0  0  0  0  0  0  0  0  0  0  0  0
   -4.1360   13.3680   24.1030 C   0  0  0  0  0  0  0  0  0  0  0  0
   -3.1220   12.6240   23.2490 C   0  0  0  0  0  0  0  0  0  0  0  0
   -1.1830   14.8110   24.6800 H   0  0  0  0  0  0  0  0  0  0  0  0
   -2.3760   15.4980   23.5470 H   0  0  0  0  0  0  0  0  0  0  0  0
   -3.7830   15.0380   25.4860 H   0  0  0  0  0  0  0  0  0  0  0  0
   -2.8880   13.5470   25.8500 H   0  0  0  0  0  0  0  0  0  0  0  0
   -4.7350   14.0380   23.4720 H   0  0  0  0  0  0  0  0  0  0  0  0
   -4.8170   12.6940   24.6320 H   0  0  0  0  0  0  0  0  0  0  0  0
   -3.4830   12.4280   22.2360 H   0  0  0  0  0  0  0  0  0  0  0  0
   -2.8330   11.6800   23.7190 H   0  0  0  0  0  0  0  0  0  0  0  0
   -2.3140   11.1140   18.1390 C   0  0  0  0  0  0  0  0  0  0  0  0
   -1.7830   11.8710   17.1360 F   0  0  0  0  0  0  0  0  0  0  0  0
   -3.5760   11.5920   18.3310 F   0  0  0  0  0  0  0  0  0  0  0  0
   -2.4590    9.8600   17.6250 F   0  0  0  0  0  0  0  0  0  0  0  0
  1  2  1  0  0  0  0
  2  3  2  0  0  0  0
  4  1  1  0  0  0  0
  5 10  2  0  0  0  0
  5  6  1  0  0  0  0
  6  7  2  0  0  0  0
  7  8  1  0  0  0  0
  7 12  1  0  0  0  0
  8 13  1  0  0  0  0
  9  1  1  0  0  0  0
  9  8  2  0  0  0  0
 10  9  1  0  0  0  0
 11  6  1  0  0  0  0
 14 10  1  0  0  0  0
 15 16  1  1  0  0  0
 15  5  1  0  0  0  0
 17 19  1  0  0  0  0
 17 15  1  0  0  0  0
 18 17  1  0  0  0  0
 20 17  1  0  0  0  0
 21 15  1  0  0  0  0
 22 26  1  0  0  0  0
 22 21  1  0  0  0  0
 23 22  2  0  0  0  0
 24 23  1  0  0  0  0
 24 25  2  0  0  0  0
 25 26  1  0  0  0  0
 26 28  1  0  0  0  0
 27 25  1  0  0  0  0
 28 31  1  0  0  0  0
 28 29  1  0  0  0  0
 30 28  1  0  0  0  0
 32  2  1  0  0  0  0
 32 33  1  0  0  0  0
 33 38  1  0  0  0  0
 34 33  2  0  0  0  0
 34 40  1  0  0  0  0
 35 34  1  0  0  0  0
 36 37  1  0  0  0  0
 36 35  2  0  0  0  0
 37 32  2  0  0  0  0
 39 35  1  0  0  0  0
 40 42  1  0  0  0  0
 41 40  2  0  0  0  0
 42 46  1  0  0  0  0
 42 43  1  0  0  0  0
 43 47  1  0  0  0  0
 43 44  1  0  0  0  0
 44 49  1  0  0  0  0
 44 50  1  0  0  0  0
 45 52  1  0  0  0  0
 45 44  1  0  0  0  0
 46 54  1  0  0  0  0
 46 45  1  0  0  0  0
 48 43  1  0  0  0  0
 51 45  1  0  0  0  0
 53 46  1  0  0  0  0
 55 57  1  0  0  0  0
 55 36  1  0  0  0  0
 56 55  1  0  0  0  0
 58 55  1  0  0  0  0
M  END
>  <MODEL>
15

>  <REMARK>
 VINA RESULT:    -7.571      4.237     10.136
 INTER + INTRA:         -12.156
 INTER:                 -11.401
 INTRA:                  -0.755
 UNBOUND:                -1.044
  Name = 
  9 active torsions:
  status: ('A' for Active; 'I' for Inactive)
    1  A    between atoms: C_1  and  C_2
    2  A    between atoms: C_2  and  S_3
    3  A    between atoms: C_2  and  C_10
    4  A    between atoms: S_3  and  C_4
    5  A    between atoms: N_8  and  C_9
    6  A    between atoms: C_14  and  N_15
    7  A    between atoms: C_16  and  C_18
    8  A    between atoms: C_20  and  C_21
    9  A    between atoms: C_29  and  C_30
                            x       y       z     vdW  Elec       q    Type
                         _______ _______ _______ _____ _____    ______ ____

>  <TORSDO>
F 9

$$$$
=
 OpenBabel07192307433D

 58 61  0  0  1  0  0  0  0  0999 V2000
    2.5610   10.2490   18.1830 N   0  0  0  0  0  0  0  0  0  0  0  0
    1.8190    9.1470   17.8060 C   0  0  0  0  0  0  0  0  0  0  0  0
    0.6360    9.1150   17.4870 O   0  0  0  0  0  0  0  0  0  0  0  0
    3.5370   10.0470   18.3850 H   0  0  0  0  0  0  0  0  0  0  0  0
    0.2980   13.0820   18.9670 C   0  0  0  0  0  0  0  0  0  0  0  0
    1.1130   14.1730   18.6410 C   0  0  0  0  0  0  0  0  0  0  0  0
    2.4120   13.9770   18.1710 C   0  0  0  0  0  0  0  0  0  0  0  0
    2.9200   12.6860   18.0140 C   0  0  0  0  0  0  0  0  0  0  0  0
    2.1340   11.5800   18.3280 C   0  0  0  0  0  0  0  0  0  0  0  0
    0.8320   11.7860   18.8110 C   0  0  0  0  0  0  0  0  0  0  0  0
    0.7540   15.1940   18.7510 H   0  0  0  0  0  0  0  0  0  0  0  0
    3.0340   14.8350   17.9280 H   0  0  0  0  0  0  0  0  0  0  0  0
    3.9340   12.5790   17.6400 H   0  0  0  0  0  0  0  0  0  0  0  0
    0.2170   10.9260   19.0700 H   0  0  0  0  0  0  0  0  0  0  0  0
   -1.1200   13.2510   19.4850 C   0  0  2  0  0  0  0  0  0  0  0  0
   -1.6640   13.8010   18.7040 H   0  0  0  0  0  0  0  0  0  0  0  0
   -1.2520   14.1440   20.7240 C   0  0  0  0  0  0  0  0  0  0  0  0
   -1.0230   13.6320   21.6630 H   0  0  0  0  0  0  0  0  0  0  0  0
   -0.5510   14.9830   20.6480 H   0  0  0  0  0  0  0  0  0  0  0  0
   -2.2590   14.5670   20.7990 H   0  0  0  0  0  0  0  0  0  0  0  0
   -2.0330   11.6720   19.5660 S   0  0  0  0  0  0  0  0  0  0  0  0
   -2.8020   11.4950   18.0330 C   0  0  0  0  0  0  0  0  0  0  0  0
   -2.2520   11.1860   16.8830 N   0  0  0  0  0  0  0  0  0  0  0  0
   -3.2530   11.0960   15.9420 N   0  0  0  0  0  0  0  0  0  0  0  0
   -4.3890   11.3530   16.5500 C   0  0  0  0  0  0  0  0  0  0  0  0
   -4.1500   11.6370   17.8620 N   0  0  0  0  0  0  0  0  0  0  0  0
   -5.3710   11.3510   16.0950 H   0  0  0  0  0  0  0  0  0  0  0  0
   -5.1410   11.9960   18.8380 C   0  0  0  0  0  0  0  0  0  0  0  0
   -5.6850   11.1010   19.1500 H   0  0  0  0  0  0  0  0  0  0  0  0
   -5.8410   12.7020   18.3840 H   0  0  0  0  0  0  0  0  0  0  0  0
   -4.6430   12.4450   19.7000 H   0  0  0  0  0  0  0  0  0  0  0  0
    2.6230    7.8800   17.7970 C   0  0  0  0  0  0  0  0  0  0  0  0
    2.0120    6.6660   18.0490 C   0  0  0  0  0  0  0  0  0  0  0  0
    2.8120    5.5330   17.9980 C   0  0  0  0  0  0  0  0  0  0  0  0
    4.1840    5.6330   17.7470 C   0  0  0  0  0  0  0  0  0  0  0  0
    4.7290    6.8930   17.5190 C   0  0  0  0  0  0  0  0  0  0  0  0
    3.9560    8.0190   17.5230 N   0  0  0  0  0  0  0  0  0  0  0  0
    0.9530    6.6000   18.2760 H   0  0  0  0  0  0  0  0  0  0  0  0
    4.8130    4.7450   17.7510 H   0  0  0  0  0  0  0  0  0  0  0  0
    2.2030    4.2180   18.2750 C   0  0  0  0  0  0  0  0  0  0  0  0
    1.9190    3.5040   17.3210 O   0  0  0  0  0  0  0  0  0  0  0  0
    1.9840    3.8710   19.5920 N   0  0  0  0  0  0  0  0  0  0  0  0
    1.4030    2.5830   19.9260 C   0  0  0  0  0  0  0  0  0  0  0  0
    1.2080    2.6450   21.4320 C   0  0  0  0  0  0  0  0  0  0  0  0
    2.3880    3.4970   21.8840 C   0  0  0  0  0  0  0  0  0  0  0  0
    2.5040    4.5380   20.7800 C   0  0  0  0  0  0  0  0  0  0  0  0
    0.4720    2.4200   19.3730 H   0  0  0  0  0  0  0  0  0  0  0  0
    2.1220    1.8030   19.6470 H   0  0  0  0  0  0  0  0  0  0  0  0
    1.1880    1.6570   21.8960 H   0  0  0  0  0  0  0  0  0  0  0  0
    0.2710    3.1610   21.6710 H   0  0  0  0  0  0  0  0  0  0  0  0
    3.2990    2.8850   21.9160 H   0  0  0  0  0  0  0  0  0  0  0  0
    2.2400    3.9450   22.8720 H   0  0  0  0  0  0  0  0  0  0  0  0
    3.5310    4.8750   20.6210 H   0  0  0  0  0  0  0  0  0  0  0  0
    1.8680    5.4010   20.9900 H   0  0  0  0  0  0  0  0  0  0  0  0
    6.2260    7.0080   17.2620 C   0  0  0  0  0  0  0  0  0  0  0  0
    6.9590    6.2580   18.1350 F   0  0  0  0  0  0  0  0  0  0  0  0
    6.6820    8.2850   17.4020 F   0  0  0  0  0  0  0  0  0  0  0  0
    6.6050    6.6070   16.0150 F   0  0  0  0  0  0  0  0  0  0  0  0
  1  9  1  0  0  0  0
  1  4  1  0  0  0  0
  2  1  1  0  0  0  0
  3  2  2  0  0  0  0
  5 15  1  0  0  0  0
  6 11  1  0  0  0  0
  6  5  2  0  0  0  0
  7  6  1  0  0  0  0
  8  7  2  0  0  0  0
  8  9  1  0  0  0  0
  9 10  2  0  0  0  0
 10  5  1  0  0  0  0
 10 14  1  0  0  0  0
 12  7  1  0  0  0  0
 13  8  1  0  0  0  0
 15 16  1  6  0  0  0
 15 21  1  0  0  0  0
 15 17  1  0  0  0  0
 17 20  1  0  0  0  0
 17 18  1  0  0  0  0
 19 17  1  0  0  0  0
 22 21  1  0  0  0  0
 23 22  2  0  0  0  0
 24 25  2  0  0  0  0
 24 23  1  0  0  0  0
 25 26  1  0  0  0  0
 26 22  1  0  0  0  0
 26 28  1  0  0  0  0
 27 25  1  0  0  0  0
 28 29  1  0  0  0  0
 28 31  1  0  0  0  0
 30 28  1  0  0  0  0
 32  2  1  0  0  0  0
 32 33  1  0  0  0  0
 33 38  1  0  0  0  0
 34 33  2  0  0  0  0
 34 40  1  0  0  0  0
 35 39  1  0  0  0  0
 35 34  1  0  0  0  0
 36 37  1  0  0  0  0
 36 35  2  0  0  0  0
 37 32  2  0  0  0  0
 40 42  1  0  0  0  0
 41 40  2  0  0  0  0
 42 43  1  0  0  0  0
 42 46  1  0  0  0  0
 43 44  1  0  0  0  0
 44 50  1  0  0  0  0
 44 45  1  0  0  0  0
 44 49  1  0  0  0  0
 45 51  1  0  0  0  0
 45 52  1  0  0  0  0
 46 54  1  0  0  0  0
 46 45  1  0  0  0  0
 47 43  1  0  0  0  0
 48 43  1  0  0  0  0
 53 46  1  0  0  0  0
 55 57  1  0  0  0  0
 55 36  1  0  0  0  0
 55 56  1  0  0  0  0
 58 55  1  0  0  0  0
M  END
>  <MODEL>
16

>  <REMARK>
 VINA RESULT:    -7.462      3.239      4.668
 INTER + INTRA:         -11.996
 INTER:                 -11.049
 INTRA:                  -0.947
 UNBOUND:                -1.044
  Name = 
  9 active torsions:
  status: ('A' for Active; 'I' for Inactive)
    1  A    between atoms: C_1  and  C_2
    2  A    between atoms: C_2  and  S_3
    3  A    between atoms: C_2  and  C_10
    4  A    between atoms: S_3  and  C_4
    5  A    between atoms: N_8  and  C_9
    6  A    between atoms: C_14  and  N_15
    7  A    between atoms: C_16  and  C_18
    8  A    between atoms: C_20  and  C_21
    9  A    between atoms: C_29  and  C_30
                            x       y       z     vdW  Elec       q    Type
                         _______ _______ _______ _____ _____    ______ ____

>  <TORSDO>
F 9

$$$$
=
 OpenBabel07192307433D

 58 61  0  0  1  0  0  0  0  0999 V2000
    1.5640    8.4360   19.6850 N   0  0  0  0  0  0  0  0  0  0  0  0
    2.2570    8.5220   18.4930 C   0  0  0  0  0  0  0  0  0  0  0  0
    2.3640    9.4980   17.7590 O   0  0  0  0  0  0  0  0  0  0  0  0
    1.6280    7.5300   20.1410 H   0  0  0  0  0  0  0  0  0  0  0  0
   -0.6840   11.3680   20.0240 C   0  0  0  0  0  0  0  0  0  0  0  0
   -0.7700   11.4790   21.4170 C   0  0  0  0  0  0  0  0  0  0  0  0
   -0.0960   10.5820   22.2460 C   0  0  0  0  0  0  0  0  0  0  0  0
    0.6820    9.5590   21.6990 C   0  0  0  0  0  0  0  0  0  0  0  0
    0.7890    9.4250   20.3170 C   0  0  0  0  0  0  0  0  0  0  0  0
    0.0990   10.3240   19.4890 C   0  0  0  0  0  0  0  0  0  0  0  0
   -1.3670   12.2610   21.8820 H   0  0  0  0  0  0  0  0  0  0  0  0
   -0.1790   10.6780   23.3260 H   0  0  0  0  0  0  0  0  0  0  0  0
    1.1940    8.8880   22.3800 H   0  0  0  0  0  0  0  0  0  0  0  0
    0.1690   10.2150   18.4080 H   0  0  0  0  0  0  0  0  0  0  0  0
   -1.4040   12.3210   19.0850 C   0  0  2  0  0  0  0  0  0  0  0  0
   -2.3970   12.4860   19.5240 H   0  0  0  0  0  0  0  0  0  0  0  0
   -1.7070   11.7500   17.6950 C   0  0  0  0  0  0  0  0  0  0  0  0
   -1.2420   10.7780   17.5060 H   0  0  0  0  0  0  0  0  0  0  0  0
   -2.7880   11.6040   17.5860 H   0  0  0  0  0  0  0  0  0  0  0  0
   -1.3910   12.4410   16.9070 H   0  0  0  0  0  0  0  0  0  0  0  0
   -0.6820   13.9970   19.0930 S   0  0  0  0  0  0  0  0  0  0  0  0
    1.0270   13.7720   19.0620 C   0  0  0  0  0  0  0  0  0  0  0  0
    1.7690   13.3450   18.0680 N   0  0  0  0  0  0  0  0  0  0  0  0
    3.0850   13.3820   18.4710 N   0  0  0  0  0  0  0  0  0  0  0  0
    3.1060   13.8330   19.7050 C   0  0  0  0  0  0  0  0  0  0  0  0
    1.8310   14.0660   20.1270 N   0  0  0  0  0  0  0  0  0  0  0  0
    3.9890   13.9950   20.3100 H   0  0  0  0  0  0  0  0  0  0  0  0
    1.4510   14.5360   21.4300 C   0  0  0  0  0  0  0  0  0  0  0  0
    1.1900   15.5960   21.3730 H   0  0  0  0  0  0  0  0  0  0  0  0
    2.2970   14.4100   22.1100 H   0  0  0  0  0  0  0  0  0  0  0  0
    0.5880   13.9620   21.7760 H   0  0  0  0  0  0  0  0  0  0  0  0
    2.9420    7.2390   18.1260 C   0  0  0  0  0  0  0  0  0  0  0  0
    2.3480    6.0260   18.4160 C   0  0  0  0  0  0  0  0  0  0  0  0
    3.0270    4.8790   18.0230 C   0  0  0  0  0  0  0  0  0  0  0  0
    4.2770    4.9620   17.4030 C   0  0  0  0  0  0  0  0  0  0  0  0
    4.8170    6.2210   17.1580 C   0  0  0  0  0  0  0  0  0  0  0  0
    4.1510    7.3640   17.4980 N   0  0  0  0  0  0  0  0  0  0  0  0
    1.3940    5.9690   18.9280 H   0  0  0  0  0  0  0  0  0  0  0  0
    4.8230    4.0590   17.1370 H   0  0  0  0  0  0  0  0  0  0  0  0
    2.4350    3.5630   18.3280 C   0  0  0  0  0  0  0  0  0  0  0  0
    2.2920    2.7700   17.4050 O   0  0  0  0  0  0  0  0  0  0  0  0
    2.0730    3.3020   19.6330 N   0  0  0  0  0  0  0  0  0  0  0  0
    1.5020    2.0160   19.9940 C   0  0  0  0  0  0  0  0  0  0  0  0
    1.1270    2.1790   21.4590 C   0  0  0  0  0  0  0  0  0  0  0  0
    2.2150    3.1120   21.9780 C   0  0  0  0  0  0  0  0  0  0  0  0
    2.4240    4.0740   20.8190 C   0  0  0  0  0  0  0  0  0  0  0  0
    0.6500    1.7740   19.3510 H   0  0  0  0  0  0  0  0  0  0  0  0
    2.2760    1.2510   19.8610 H   0  0  0  0  0  0  0  0  0  0  0  0
    1.0870    1.2270   21.9910 H   0  0  0  0  0  0  0  0  0  0  0  0
    0.1510    2.6690   21.5470 H   0  0  0  0  0  0  0  0  0  0  0  0
    3.1350    2.5440   22.1620 H   0  0  0  0  0  0  0  0  0  0  0  0
    1.9340    3.6220   22.9050 H   0  0  0  0  0  0  0  0  0  0  0  0
    3.4500    4.4440   20.7550 H   0  0  0  0  0  0  0  0  0  0  0  0
    1.7370    4.9220   20.8870 H   0  0  0  0  0  0  0  0  0  0  0  0
    6.1870    6.3150   16.4980 C   0  0  0  0  0  0  0  0  0  0  0  0
    6.7810    7.5240   16.7090 F   0  0  0  0  0  0  0  0  0  0  0  0
    6.1220    6.1680   15.1440 F   0  0  0  0  0  0  0  0  0  0  0  0
    7.0770    5.3800   16.9360 F   0  0  0  0  0  0  0  0  0  0  0  0
  1  4  1  0  0  0  0
  1  9  1  0  0  0  0
  2  1  1  0  0  0  0
  3  2  2  0  0  0  0
  5  6  1  0  0  0  0
  6 11  1  0  0  0  0
  6  7  2  0  0  0  0
  7 12  1  0  0  0  0
  8  7  1  0  0  0  0
  8 13  1  0  0  0  0
  9  8  2  0  0  0  0
 10  5  2  0  0  0  0
 10  9  1  0  0  0  0
 14 10  1  0  0  0  0
 15 21  1  0  0  0  0
 15 16  1  1  0  0  0
 15  5  1  0  0  0  0
 17 15  1  0  0  0  0
 18 17  1  0  0  0  0
 19 17  1  0  0  0  0
 20 17  1  0  0  0  0
 22 21  1  0  0  0  0
 22 26  1  0  0  0  0
 23 24  1  0  0  0  0
 23 22  2  0  0  0  0
 24 25  2  0  0  0  0
 25 26  1  0  0  0  0
 25 27  1  0  0  0  0
 26 28  1  0  0  0  0
 28 31  1  0  0  0  0
 28 30  1  0  0  0  0
 29 28  1  0  0  0  0
 32 33  1  0  0  0  0
 32  2  1  0  0  0  0
 33 38  1  0  0  0  0
 34 40  1  0  0  0  0
 34 33  2  0  0  0  0
 35 34  1  0  0  0  0
 36 35  2  0  0  0  0
 36 37  1  0  0  0  0
 37 32  2  0  0  0  0
 39 35  1  0  0  0  0
 40 42  1  0  0  0  0
 41 40  2  0  0  0  0
 42 43  1  0  0  0  0
 42 46  1  0  0  0  0
 43 44  1  0  0  0  0
 44 50  1  0  0  0  0
 44 45  1  0  0  0  0
 44 49  1  0  0  0  0
 45 51  1  0  0  0  0
 45 52  1  0  0  0  0
 46 54  1  0  0  0  0
 46 45  1  0  0  0  0
 47 43  1  0  0  0  0
 48 43  1  0  0  0  0
 53 46  1  0  0  0  0
 55 56  1  0  0  0  0
 55 58  1  0  0  0  0
 55 36  1  0  0  0  0
 57 55  1  0  0  0  0
M  END
>  <MODEL>
17

>  <REMARK>
 VINA RESULT:    -7.409      3.323      5.089
 INTER + INTRA:         -11.918
 INTER:                 -11.149
 INTRA:                  -0.770
 UNBOUND:                -1.044
  Name = 
  9 active torsions:
  status: ('A' for Active; 'I' for Inactive)
    1  A    between atoms: C_1  and  C_2
    2  A    between atoms: C_2  and  S_3
    3  A    between atoms: C_2  and  C_10
    4  A    between atoms: S_3  and  C_4
    5  A    between atoms: N_8  and  C_9
    6  A    between atoms: C_14  and  N_15
    7  A    between atoms: C_16  and  C_18
    8  A    between atoms: C_20  and  C_21
    9  A    between atoms: C_29  and  C_30
                            x       y       z     vdW  Elec       q    Type
                         _______ _______ _______ _____ _____    ______ ____

>  <TORSDO>
F 9

$$$$
=
 OpenBabel07192307433D

 58 61  0  0  1  0  0  0  0  0999 V2000
    2.4880    8.5150   18.0220 N   0  0  0  0  0  0  0  0  0  0  0  0
    2.5060    7.4550   18.9080 C   0  0  0  0  0  0  0  0  0  0  0  0
    2.0090    7.4080   20.0270 O   0  0  0  0  0  0  0  0  0  0  0  0
    2.9470    8.3260   17.1340 H   0  0  0  0  0  0  0  0  0  0  0  0
   -0.0200   11.0990   18.9120 C   0  0  0  0  0  0  0  0  0  0  0  0
    0.6780   12.2700   18.5940 C   0  0  0  0  0  0  0  0  0  0  0  0
    1.9800   12.2100   18.0960 C   0  0  0  0  0  0  0  0  0  0  0  0
    2.6070   10.9780   17.9000 C   0  0  0  0  0  0  0  0  0  0  0  0
    1.9370    9.7960   18.2050 C   0  0  0  0  0  0  0  0  0  0  0  0
    0.6330    9.8650   18.7170 C   0  0  0  0  0  0  0  0  0  0  0  0
    0.2250   13.2500   18.7340 H   0  0  0  0  0  0  0  0  0  0  0  0
    2.5110   13.1290   17.8600 H   0  0  0  0  0  0  0  0  0  0  0  0
    3.6180   10.9770   17.5050 H   0  0  0  0  0  0  0  0  0  0  0  0
    0.1090    8.9440   18.9680 H   0  0  0  0  0  0  0  0  0  0  0  0
   -1.4370   11.1200   19.4600 C   0  0  2  0  0  0  0  0  0  0  0  0
   -1.7050   10.0700   19.6450 H   0  0  0  0  0  0  0  0  0  0  0  0
   -2.5030   11.6020   18.4700 C   0  0  0  0  0  0  0  0  0  0  0  0
   -2.1150   11.8080   17.4690 H   0  0  0  0  0  0  0  0  0  0  0  0
   -3.2720   10.8300   18.3530 H   0  0  0  0  0  0  0  0  0  0  0  0
   -3.0020   12.5060   18.8380 H   0  0  0  0  0  0  0  0  0  0  0  0
   -1.5370   11.8550   21.1270 S   0  0  0  0  0  0  0  0  0  0  0  0
   -2.8930   12.9200   21.0900 C   0  0  0  0  0  0  0  0  0  0  0  0
   -4.1500   12.6380   21.3350 N   0  0  0  0  0  0  0  0  0  0  0  0
   -4.8740   13.8060   21.2470 N   0  0  0  0  0  0  0  0  0  0  0  0
   -4.0320   14.7690   20.9510 C   0  0  0  0  0  0  0  0  0  0  0  0
   -2.7780   14.2540   20.8150 N   0  0  0  0  0  0  0  0  0  0  0  0
   -4.2780   15.8160   20.8240 H   0  0  0  0  0  0  0  0  0  0  0  0
   -1.5970   14.9950   20.4660 C   0  0  0  0  0  0  0  0  0  0  0  0
   -1.5040   15.8630   21.1250 H   0  0  0  0  0  0  0  0  0  0  0  0
   -1.6910   15.3370   19.4320 H   0  0  0  0  0  0  0  0  0  0  0  0
   -0.7250   14.3480   20.5820 H   0  0  0  0  0  0  0  0  0  0  0  0
    3.2210    6.2550   18.3630 C   0  0  0  0  0  0  0  0  0  0  0  0
    4.4010    6.4080   17.6600 C   0  0  0  0  0  0  0  0  0  0  0  0
    5.0220    5.2510   17.2070 C   0  0  0  0  0  0  0  0  0  0  0  0
    4.4460    3.9950   17.4210 C   0  0  0  0  0  0  0  0  0  0  0  0
    3.2470    3.9240   18.1240 C   0  0  0  0  0  0  0  0  0  0  0  0
    2.6370    5.0440   18.6150 N   0  0  0  0  0  0  0  0  0  0  0  0
    4.8250    7.3870   17.4690 H   0  0  0  0  0  0  0  0  0  0  0  0
    4.9150    3.0970   17.0260 H   0  0  0  0  0  0  0  0  0  0  0  0
    6.2760    5.3710   16.4400 C   0  0  0  0  0  0  0  0  0  0  0  0
    7.2630    5.8090   17.0170 O   0  0  0  0  0  0  0  0  0  0  0  0
    6.2630    4.9860   15.1150 N   0  0  0  0  0  0  0  0  0  0  0  0
    7.4730    5.0650   14.3150 C   0  0  0  0  0  0  0  0  0  0  0  0
    7.0140    4.6870   12.9150 C   0  0  0  0  0  0  0  0  0  0  0  0
    5.9120    3.6710   13.1910 C   0  0  0  0  0  0  0  0  0  0  0  0
    5.2210    4.2370   14.4220 C   0  0  0  0  0  0  0  0  0  0  0  0
    7.9140    6.0650   14.3730 H   0  0  0  0  0  0  0  0  0  0  0  0
    8.1910    4.3370   14.7110 H   0  0  0  0  0  0  0  0  0  0  0  0
    7.8230    4.2900   12.3000 H   0  0  0  0  0  0  0  0  0  0  0  0
    6.5870    5.5610   12.4090 H   0  0  0  0  0  0  0  0  0  0  0  0
    6.3570    2.6960   13.4270 H   0  0  0  0  0  0  0  0  0  0  0  0
    5.2290    3.5410   12.3460 H   0  0  0  0  0  0  0  0  0  0  0  0
    4.8030    3.4610   15.0670 H   0  0  0  0  0  0  0  0  0  0  0  0
    4.4320    4.9370   14.1390 H   0  0  0  0  0  0  0  0  0  0  0  0
    2.6070    2.5590   18.3440 C   0  0  0  0  0  0  0  0  0  0  0  0
    3.2600    1.5680   17.6720 F   0  0  0  0  0  0  0  0  0  0  0  0
    1.3170    2.5120   17.9060 F   0  0  0  0  0  0  0  0  0  0  0  0
    2.5750    2.1670   19.6500 F   0  0  0  0  0  0  0  0  0  0  0  0
  1  9  1  0  0  0  0
  1  2  1  0  0  0  0
  2  3  2  0  0  0  0
  4  1  1  0  0  0  0
  5 15  1  0  0  0  0
  6 11  1  0  0  0  0
  6  5  2  0  0  0  0
  7  6  1  0  0  0  0
  8  7  2  0  0  0  0
  8  9  1  0  0  0  0
  9 10  2  0  0  0  0
 10  5  1  0  0  0  0
 10 14  1  0  0  0  0
 12  7  1  0  0  0  0
 13  8  1  0  0  0  0
 15 16  1  1  0  0  0
 15 21  1  0  0  0  0
 17 20  1  0  0  0  0
 17 15  1  0  0  0  0
 18 17  1  0  0  0  0
 19 17  1  0  0  0  0
 22 21  1  0  0  0  0
 22 23  2  0  0  0  0
 24 23  1  0  0  0  0
 25 24  2  0  0  0  0
 26 25  1  0  0  0  0
 26 22  1  0  0  0  0
 27 25  1  0  0  0  0
 28 31  1  0  0  0  0
 28 26  1  0  0  0  0
 28 29  1  0  0  0  0
 30 28  1  0  0  0  0
 32 37  1  0  0  0  0
 32  2  1  0  0  0  0
 33 32  2  0  0  0  0
 34 35  2  0  0  0  0
 34 33  1  0  0  0  0
 35 36  1  0  0  0  0
 36 55  1  0  0  0  0
 36 37  2  0  0  0  0
 38 33  1  0  0  0  0
 39 35  1  0  0  0  0
 40 41  2  0  0  0  0
 40 34  1  0  0  0  0
 42 40  1  0  0  0  0
 43 47  1  0  0  0  0
 43 48  1  0  0  0  0
 43 42  1  0  0  0  0
 44 45  1  0  0  0  0
 44 43  1  0  0  0  0
 45 51  1  0  0  0  0
 45 46  1  0  0  0  0
 46 53  1  0  0  0  0
 46 42  1  0  0  0  0
 49 44  1  0  0  0  0
 50 44  1  0  0  0  0
 52 45  1  0  0  0  0
 54 46  1  0  0  0  0
 55 58  1  0  0  0  0
 56 55  1  0  0  0  0
 57 55  1  0  0  0  0
M  END
>  <MODEL>
18

>  <REMARK>
 VINA RESULT:    -7.347      2.530      3.483
 INTER + INTRA:         -11.828
 INTER:                 -11.259
 INTRA:                  -0.569
 UNBOUND:                -1.044
  Name = 
  9 active torsions:
  status: ('A' for Active; 'I' for Inactive)
    1  A    between atoms: C_1  and  C_2
    2  A    between atoms: C_2  and  S_3
    3  A    between atoms: C_2  and  C_10
    4  A    between atoms: S_3  and  C_4
    5  A    between atoms: N_8  and  C_9
    6  A    between atoms: C_14  and  N_15
    7  A    between atoms: C_16  and  C_18
    8  A    between atoms: C_20  and  C_21
    9  A    between atoms: C_29  and  C_30
                            x       y       z     vdW  Elec       q    Type
                         _______ _______ _______ _____ _____    ______ ____

>  <TORSDO>
F 9

$$$$
=
 OpenBabel07192307433D

 58 61  0  0  1  0  0  0  0  0999 V2000
    0.4610    9.4910   18.7410 N   0  0  0  0  0  0  0  0  0  0  0  0
    1.7420    9.5440   18.2270 C   0  0  0  0  0  0  0  0  0  0  0  0
    2.3250   10.5200   17.7710 O   0  0  0  0  0  0  0  0  0  0  0  0
    0.1860    8.5760   19.0880 H   0  0  0  0  0  0  0  0  0  0  0  0
   -0.9550   12.8190   19.5680 C   0  0  0  0  0  0  0  0  0  0  0  0
   -2.2680   12.6740   19.1040 C   0  0  0  0  0  0  0  0  0  0  0  0
   -2.6850   11.4830   18.5080 C   0  0  0  0  0  0  0  0  0  0  0  0
   -1.8000   10.4120   18.3710 C   0  0  0  0  0  0  0  0  0  0  0  0
   -0.4880   10.5250   18.8250 C   0  0  0  0  0  0  0  0  0  0  0  0
   -0.0730   11.7300   19.4120 C   0  0  0  0  0  0  0  0  0  0  0  0
   -2.9870   13.4850   19.1920 H   0  0  0  0  0  0  0  0  0  0  0  0
   -3.7060   11.3890   18.1470 H   0  0  0  0  0  0  0  0  0  0  0  0
   -2.1680    9.5020   17.9070 H   0  0  0  0  0  0  0  0  0  0  0  0
    0.9550   11.8280   19.7580 H   0  0  0  0  0  0  0  0  0  0  0  0
   -0.4590   14.0980   20.2200 C   0  0  2  0  0  0  0  0  0  0  0  0
   -1.3230   14.7770   20.2520 H   0  0  0  0  0  0  0  0  0  0  0  0
    0.5850   14.8720   19.4070 C   0  0  0  0  0  0  0  0  0  0  0  0
    1.5080   14.3130   19.2270 H   0  0  0  0  0  0  0  0  0  0  0  0
    0.1740   15.1190   18.4210 H   0  0  0  0  0  0  0  0  0  0  0  0
    0.8450   15.8170   19.8960 H   0  0  0  0  0  0  0  0  0  0  0  0
   -0.0580   13.8800   21.9870 S   0  0  0  0  0  0  0  0  0  0  0  0
   -1.5370   13.4270   22.7500 C   0  0  0  0  0  0  0  0  0  0  0  0
   -2.5480   14.1970   23.0770 N   0  0  0  0  0  0  0  0  0  0  0  0
   -3.5370   13.3990   23.6060 N   0  0  0  0  0  0  0  0  0  0  0  0
   -3.0980   12.1620   23.5860 C   0  0  0  0  0  0  0  0  0  0  0  0
   -1.8320   12.1350   23.0810 N   0  0  0  0  0  0  0  0  0  0  0  0
   -3.6400   11.2870   23.9210 H   0  0  0  0  0  0  0  0  0  0  0  0
   -1.0120   10.9650   22.9310 C   0  0  0  0  0  0  0  0  0  0  0  0
    0.0390   11.2390   23.0530 H   0  0  0  0  0  0  0  0  0  0  0  0
   -1.1630   10.5560   21.9290 H   0  0  0  0  0  0  0  0  0  0  0  0
   -1.2930   10.2350   23.6930 H   0  0  0  0  0  0  0  0  0  0  0  0
    2.4440    8.2190   18.2810 C   0  0  0  0  0  0  0  0  0  0  0  0
    2.0800    7.2770   19.2240 C   0  0  0  0  0  0  0  0  0  0  0  0
    2.7540    6.0630   19.1980 C   0  0  0  0  0  0  0  0  0  0  0  0
    3.7840    5.8330   18.2810 C   0  0  0  0  0  0  0  0  0  0  0  0
    4.1030    6.8370   17.3720 C   0  0  0  0  0  0  0  0  0  0  0  0
    3.4280    8.0250   17.3510 N   0  0  0  0  0  0  0  0  0  0  0  0
    1.3030    7.4750   19.9540 H   0  0  0  0  0  0  0  0  0  0  0  0
    4.3370    4.8960   18.2950 H   0  0  0  0  0  0  0  0  0  0  0  0
    2.4070    5.0350   20.1980 C   0  0  0  0  0  0  0  0  0  0  0  0
    2.5170    5.3260   21.3830 O   0  0  0  0  0  0  0  0  0  0  0  0
    1.9830    3.8050   19.7420 N   0  0  0  0  0  0  0  0  0  0  0  0
    1.6110    2.7610   20.6800 C   0  0  0  0  0  0  0  0  0  0  0  0
    1.3400    1.5520   19.7980 C   0  0  0  0  0  0  0  0  0  0  0  0
    0.7670    2.1850   18.5360 C   0  0  0  0  0  0  0  0  0  0  0  0
    1.5930    3.4530   18.3810 C   0  0  0  0  0  0  0  0  0  0  0  0
    2.4070    2.5950   21.4130 H   0  0  0  0  0  0  0  0  0  0  0  0
    0.7050    3.0840   21.2070 H   0  0  0  0  0  0  0  0  0  0  0  0
    0.6630    0.8340   20.2650 H   0  0  0  0  0  0  0  0  0  0  0  0
    2.2790    1.0410   19.5580 H   0  0  0  0  0  0  0  0  0  0  0  0
   -0.2880    2.4440   18.6950 H   0  0  0  0  0  0  0  0  0  0  0  0
    0.8320    1.5300   17.6610 H   0  0  0  0  0  0  0  0  0  0  0  0
    1.0360    4.2670   17.9110 H   0  0  0  0  0  0  0  0  0  0  0  0
    2.5030    3.2580   17.8070 H   0  0  0  0  0  0  0  0  0  0  0  0
    5.2360    6.5960   16.3830 C   0  0  0  0  0  0  0  0  0  0  0  0
    4.9250    7.0270   15.1260 F   0  0  0  0  0  0  0  0  0  0  0  0
    5.5410    5.2740   16.2530 F   0  0  0  0  0  0  0  0  0  0  0  0
    6.4010    7.2210   16.7140 F   0  0  0  0  0  0  0  0  0  0  0  0
  1  9  1  0  0  0  0
  1  4  1  0  0  0  0
  2 32  1  0  0  0  0
  2  1  1  0  0  0  0
  3  2  2  0  0  0  0
  5 15  1  0  0  0  0
  6 11  1  0  0  0  0
  6  5  2  0  0  0  0
  7  6  1  0  0  0  0
  8  7  2  0  0  0  0
  8  9  1  0  0  0  0
  9 10  2  0  0  0  0
 10  5  1  0  0  0  0
 10 14  1  0  0  0  0
 12  7  1  0  0  0  0
 13  8  1  0  0  0  0
 15 16  1  1  0  0  0
 15 21  1  0  0  0  0
 17 20  1  0  0  0  0
 17 15  1  0  0  0  0
 18 17  1  0  0  0  0
 19 17  1  0  0  0  0
 21 22  1  0  0  0  0
 22 23  2  0  0  0  0
 22 26  1  0  0  0  0
 23 24  1  0  0  0  0
 25 24  2  0  0  0  0
 25 27  1  0  0  0  0
 26 25  1  0  0  0  0
 28 29  1  0  0  0  0
 28 26  1  0  0  0  0
 28 31  1  0  0  0  0
 30 28  1  0  0  0  0
 32 33  1  0  0  0  0
 33 38  1  0  0  0  0
 34 33  2  0  0  0  0
 34 40  1  0  0  0  0
 35 39  1  0  0  0  0
 35 34  1  0  0  0  0
 36 35  2  0  0  0  0
 37 36  1  0  0  0  0
 37 32  2  0  0  0  0
 40 41  2  0  0  0  0
 42 40  1  0  0  0  0
 42 43  1  0  0  0  0
 43 48  1  0  0  0  0
 43 47  1  0  0  0  0
 44 49  1  0  0  0  0
 44 43  1  0  0  0  0
 45 51  1  0  0  0  0
 45 44  1  0  0  0  0
 46 45  1  0  0  0  0
 46 42  1  0  0  0  0
 50 44  1  0  0  0  0
 52 45  1  0  0  0  0
 53 46  1  0  0  0  0
 54 46  1  0  0  0  0
 55 58  1  0  0  0  0
 55 36  1  0  0  0  0
 56 55  1  0  0  0  0
 57 55  1  0  0  0  0
M  END
>  <MODEL>
19

>  <REMARK>
 VINA RESULT:    -7.338      3.463      5.237
 INTER + INTRA:         -11.813
 INTER:                 -10.840
 INTRA:                  -0.974
 UNBOUND:                -1.044
  Name = 
  9 active torsions:
  status: ('A' for Active; 'I' for Inactive)
    1  A    between atoms: C_1  and  C_2
    2  A    between atoms: C_2  and  S_3
    3  A    between atoms: C_2  and  C_10
    4  A    between atoms: S_3  and  C_4
    5  A    between atoms: N_8  and  C_9
    6  A    between atoms: C_14  and  N_15
    7  A    between atoms: C_16  and  C_18
    8  A    between atoms: C_20  and  C_21
    9  A    between atoms: C_29  and  C_30
                            x       y       z     vdW  Elec       q    Type
                         _______ _______ _______ _____ _____    ______ ____

>  <TORSDO>
F 9

$$$$
=
 OpenBabel07192307433D

 58 61  0  0  1  0  0  0  0  0999 V2000
    1.1270    8.5390   19.0700 N   0  0  0  0  0  0  0  0  0  0  0  0
    1.6000    7.9680   20.2360 C   0  0  0  0  0  0  0  0  0  0  0  0
    1.4960    8.4020   21.3770 O   0  0  0  0  0  0  0  0  0  0  0  0
    1.3080    7.9910   18.2330 H   0  0  0  0  0  0  0  0  0  0  0  0
    0.2150   12.0820   19.6800 C   0  0  0  0  0  0  0  0  0  0  0  0
   -0.8100   12.2600   18.7420 C   0  0  0  0  0  0  0  0  0  0  0  0
   -1.1950   11.2150   17.9010 C   0  0  0  0  0  0  0  0  0  0  0  0
   -0.5660    9.9710   17.9850 C   0  0  0  0  0  0  0  0  0  0  0  0
    0.4550    9.7630   18.9090 C   0  0  0  0  0  0  0  0  0  0  0  0
    0.8440   10.8230   19.7430 C   0  0  0  0  0  0  0  0  0  0  0  0
   -1.3230   13.2140   18.6450 H   0  0  0  0  0  0  0  0  0  0  0  0
   -1.9870   11.3710   17.1740 H   0  0  0  0  0  0  0  0  0  0  0  0
   -0.9000    9.1850   17.3150 H   0  0  0  0  0  0  0  0  0  0  0  0
    1.6500   10.6690   20.4590 H   0  0  0  0  0  0  0  0  0  0  0  0
    0.6660   13.1940   20.6120 C   0  0  2  0  0  0  0  0  0  0  0  0
    0.3070   12.9150   21.6120 H   0  0  0  0  0  0  0  0  0  0  0  0
    0.0130   14.5560   20.3540 C   0  0  0  0  0  0  0  0  0  0  0  0
    0.3900   15.3550   20.9990 H   0  0  0  0  0  0  0  0  0  0  0  0
    0.2110   14.8700   19.3220 H   0  0  0  0  0  0  0  0  0  0  0  0
   -1.0740   14.5020   20.4740 H   0  0  0  0  0  0  0  0  0  0  0  0
    2.4770   13.2320   20.8360 S   0  0  0  0  0  0  0  0  0  0  0  0
    3.1080   13.9970   19.4260 C   0  0  0  0  0  0  0  0  0  0  0  0
    2.6280   13.9680   18.2060 N   0  0  0  0  0  0  0  0  0  0  0  0
    3.4210   14.7700   17.4160 N   0  0  0  0  0  0  0  0  0  0  0  0
    4.3650   15.2670   18.1820 C   0  0  0  0  0  0  0  0  0  0  0  0
    4.2240   14.7860   19.4500 N   0  0  0  0  0  0  0  0  0  0  0  0
    5.1460   15.9490   17.8710 H   0  0  0  0  0  0  0  0  0  0  0  0
    5.0860   15.0810   20.5610 C   0  0  0  0  0  0  0  0  0  0  0  0
    5.9510   15.6510   20.2090 H   0  0  0  0  0  0  0  0  0  0  0  0
    5.4290   14.1400   20.9980 H   0  0  0  0  0  0  0  0  0  0  0  0
    4.5300   15.6690   21.2940 H   0  0  0  0  0  0  0  0  0  0  0  0
    2.2980    6.6610   20.0000 C   0  0  0  0  0  0  0  0  0  0  0  0
    3.5850    6.6410   19.4980 C   0  0  0  0  0  0  0  0  0  0  0  0
    4.1800    5.3970   19.3310 C   0  0  0  0  0  0  0  0  0  0  0  0
    3.4790    4.2220   19.6190 C   0  0  0  0  0  0  0  0  0  0  0  0
    2.1790    4.3240   20.1070 C   0  0  0  0  0  0  0  0  0  0  0  0
    1.5870    5.5370   20.3180 N   0  0  0  0  0  0  0  0  0  0  0  0
    4.1100    7.5560   19.2450 H   0  0  0  0  0  0  0  0  0  0  0  0
    3.9350    3.2490   19.4450 H   0  0  0  0  0  0  0  0  0  0  0  0
    5.5470    5.3300   18.7830 C   0  0  0  0  0  0  0  0  0  0  0  0
    6.4840    5.5090   19.5520 O   0  0  0  0  0  0  0  0  0  0  0  0
    5.6930    5.0720   17.4360 N   0  0  0  0  0  0  0  0  0  0  0  0
    7.0160    4.9780   16.8440 C   0  0  0  0  0  0  0  0  0  0  0  0
    6.7440    4.8230   15.3560 C   0  0  0  0  0  0  0  0  0  0  0  0
    5.4450    4.0280   15.3380 C   0  0  0  0  0  0  0  0  0  0  0  0
    4.6670    4.6110   16.5080 C   0  0  0  0  0  0  0  0  0  0  0  0
    7.6160    5.8610   17.0880 H   0  0  0  0  0  0  0  0  0  0  0  0
    7.5090    4.0890   17.2560 H   0  0  0  0  0  0  0  0  0  0  0  0
    7.5610    4.3270   14.8280 H   0  0  0  0  0  0  0  0  0  0  0  0
    6.5790    5.8050   14.8980 H   0  0  0  0  0  0  0  0  0  0  0  0
    5.6550    2.9660   15.5210 H   0  0  0  0  0  0  0  0  0  0  0  0
    4.9050    4.1120   14.3890 H   0  0  0  0  0  0  0  0  0  0  0  0
    4.0090    3.8810   16.9850 H   0  0  0  0  0  0  0  0  0  0  0  0
    4.0800    5.4770   16.1930 H   0  0  0  0  0  0  0  0  0  0  0  0
    1.4070    3.0450   20.4060 C   0  0  0  0  0  0  0  0  0  0  0  0
    0.1530    3.0610   19.8690 F   0  0  0  0  0  0  0  0  0  0  0  0
    1.2320    2.8440   21.7430 F   0  0  0  0  0  0  0  0  0  0  0  0
    2.0030    1.9150   19.9300 F   0  0  0  0  0  0  0  0  0  0  0  0
  1  2  1  0  0  0  0
  2  3  2  0  0  0  0
  4  1  1  0  0  0  0
  5 10  1  0  0  0  0
  5 15  1  0  0  0  0
  6  5  2  0  0  0  0
  7  8  2  0  0  0  0
  7  6  1  0  0  0  0
  8  9  1  0  0  0  0
  9  1  1  0  0  0  0
  9 10  2  0  0  0  0
 10 14  1  0  0  0  0
 11  6  1  0  0  0  0
 12  7  1  0  0  0  0
 13  8  1  0  0  0  0
 15 21  1  0  0  0  0
 15 16  1  1  0  0  0
 17 20  1  0  0  0  0
 17 15  1  0  0  0  0
 17 18  1  0  0  0  0
 19 17  1  0  0  0  0
 22 26  1  0  0  0  0
 22 21  1  0  0  0  0
 23 22  2  0  0  0  0
 24 25  2  0  0  0  0
 24 23  1  0  0  0  0
 25 26  1  0  0  0  0
 26 28  1  0  0  0  0
 27 25  1  0  0  0  0
 28 30  1  0  0  0  0
 28 31  1  0  0  0  0
 29 28  1  0  0  0  0
 32  2  1  0  0  0  0
 32 37  1  0  0  0  0
 33 32  2  0  0  0  0
 34 33  1  0  0  0  0
 34 35  2  0  0  0  0
 35 36  1  0  0  0  0
 36 37  2  0  0  0  0
 36 55  1  0  0  0  0
 38 33  1  0  0  0  0
 39 35  1  0  0  0  0
 40 34  1  0  0  0  0
 40 41  2  0  0  0  0
 42 40  1  0  0  0  0
 43 47  1  0  0  0  0
 43 48  1  0  0  0  0
 43 42  1  0  0  0  0
 44 43  1  0  0  0  0
 45 44  1  0  0  0  0
 45 51  1  0  0  0  0
 45 46  1  0  0  0  0
 46 53  1  0  0  0  0
 46 42  1  0  0  0  0
 49 44  1  0  0  0  0
 50 44  1  0  0  0  0
 52 45  1  0  0  0  0
 54 46  1  0  0  0  0
 55 57  1  0  0  0  0
 56 55  1  0  0  0  0
 58 55  1  0  0  0  0
M  END
>  <MODEL>
20

>  <REMARK>
 VINA RESULT:    -7.334      2.846      4.071
 INTER + INTRA:         -11.808
 INTER:                 -11.126
 INTRA:                  -0.682
 UNBOUND:                -1.044
  Name = 
  9 active torsions:
  status: ('A' for Active; 'I' for Inactive)
    1  A    between atoms: C_1  and  C_2
    2  A    between atoms: C_2  and  S_3
    3  A    between atoms: C_2  and  C_10
    4  A    between atoms: S_3  and  C_4
    5  A    between atoms: N_8  and  C_9
    6  A    between atoms: C_14  and  N_15
    7  A    between atoms: C_16  and  C_18
    8  A    between atoms: C_20  and  C_21
    9  A    between atoms: C_29  and  C_30
                            x       y       z     vdW  Elec       q    Type
                         _______ _______ _______ _____ _____    ______ ____

>  <TORSDO>
F 9

$$$$
=
 OpenBabel07192307433D

 58 61  0  0  1  0  0  0  0  0999 V2000
    1.5930    8.1850   19.5500 N   0  0  0  0  0  0  0  0  0  0  0  0
    1.2000    9.0460   20.5560 C   0  0  0  0  0  0  0  0  0  0  0  0
    1.2480    8.8540   21.7650 O   0  0  0  0  0  0  0  0  0  0  0  0
    1.4840    8.5610   18.6110 H   0  0  0  0  0  0  0  0  0  0  0  0
    3.4730    5.1170   18.6500 C   0  0  0  0  0  0  0  0  0  0  0  0
    3.1600    4.2840   19.7310 C   0  0  0  0  0  0  0  0  0  0  0  0
    2.3370    4.7360   20.7630 C   0  0  0  0  0  0  0  0  0  0  0  0
    1.8060    6.0280   20.7310 C   0  0  0  0  0  0  0  0  0  0  0  0
    2.0980    6.8780   19.6680 C   0  0  0  0  0  0  0  0  0  0  0  0
    2.9360    6.4200   18.6400 C   0  0  0  0  0  0  0  0  0  0  0  0
    3.5550    3.2720   19.7930 H   0  0  0  0  0  0  0  0  0  0  0  0
    2.1090    4.0800   21.5990 H   0  0  0  0  0  0  0  0  0  0  0  0
    1.1660    6.3360   21.5510 H   0  0  0  0  0  0  0  0  0  0  0  0
    3.1780    7.0850   17.8120 H   0  0  0  0  0  0  0  0  0  0  0  0
    4.3680    4.6650   17.5070 C   0  0  2  0  0  0  0  0  0  0  0  0
    4.4880    5.5400   16.8530 H   0  0  0  0  0  0  0  0  0  0  0  0
    3.7540    3.6020   16.5900 C   0  0  0  0  0  0  0  0  0  0  0  0
    3.8370    3.8370   15.5250 H   0  0  0  0  0  0  0  0  0  0  0  0
    4.2690    2.6460   16.7390 H   0  0  0  0  0  0  0  0  0  0  0  0
    2.6960    3.4420   16.8240 H   0  0  0  0  0  0  0  0  0  0  0  0
    6.0800    4.3310   18.0440 S   0  0  0  0  0  0  0  0  0  0  0  0
    6.9100    5.8380   17.9270 C   0  0  0  0  0  0  0  0  0  0  0  0
    6.7620    6.7760   17.0220 N   0  0  0  0  0  0  0  0  0  0  0  0
    7.5850    7.8270   17.3590 N   0  0  0  0  0  0  0  0  0  0  0  0
    8.2130    7.4970   18.4650 C   0  0  0  0  0  0  0  0  0  0  0  0
    7.8400    6.2420   18.8440 N   0  0  0  0  0  0  0  0  0  0  0  0
    8.9240    8.1110   19.0020 H   0  0  0  0  0  0  0  0  0  0  0  0
    8.3350    5.5280   19.9880 C   0  0  0  0  0  0  0  0  0  0  0  0
    8.2600    6.1640   20.8750 H   0  0  0  0  0  0  0  0  0  0  0  0
    9.3840    5.2750   19.8160 H   0  0  0  0  0  0  0  0  0  0  0  0
    7.7360    4.6260   20.1290 H   0  0  0  0  0  0  0  0  0  0  0  0
    0.6790   10.3520   20.0330 C   0  0  0  0  0  0  0  0  0  0  0  0
   -0.6610   10.4920   19.7240 C   0  0  0  0  0  0  0  0  0  0  0  0
   -1.0780   11.7370   19.2690 C   0  0  0  0  0  0  0  0  0  0  0  0
   -0.1640   12.7800   19.0940 C   0  0  0  0  0  0  0  0  0  0  0  0
    1.1720   12.5560   19.4120 C   0  0  0  0  0  0  0  0  0  0  0  0
    1.6010   11.3540   19.8990 N   0  0  0  0  0  0  0  0  0  0  0  0
   -1.3570    9.6680   19.8310 H   0  0  0  0  0  0  0  0  0  0  0  0
   -0.4900   13.7400   18.6970 H   0  0  0  0  0  0  0  0  0  0  0  0
   -2.4970   11.9250   18.9140 C   0  0  0  0  0  0  0  0  0  0  0  0
   -3.2090   12.5390   19.6990 O   0  0  0  0  0  0  0  0  0  0  0  0
   -2.9410   11.3960   17.7200 N   0  0  0  0  0  0  0  0  0  0  0  0
   -4.3240   11.5660   17.3100 C   0  0  0  0  0  0  0  0  0  0  0  0
   -4.4340   10.7410   16.0370 C   0  0  0  0  0  0  0  0  0  0  0  0
   -3.0500   10.8990   15.4180 C   0  0  0  0  0  0  0  0  0  0  0  0
   -2.1280   10.8740   16.6270 C   0  0  0  0  0  0  0  0  0  0  0  0
   -5.0070   11.2400   18.1000 H   0  0  0  0  0  0  0  0  0  0  0  0
   -4.4910   12.6310   17.1120 H   0  0  0  0  0  0  0  0  0  0  0  0
   -5.2390   11.0810   15.3830 H   0  0  0  0  0  0  0  0  0  0  0  0
   -4.6070    9.6870   16.2830 H   0  0  0  0  0  0  0  0  0  0  0  0
   -2.9770   11.8710   14.9140 H   0  0  0  0  0  0  0  0  0  0  0  0
   -2.8140   10.1160   14.6910 H   0  0  0  0  0  0  0  0  0  0  0  0
   -1.2280   11.4780   16.4870 H   0  0  0  0  0  0  0  0  0  0  0  0
   -1.8410    9.8490   16.8780 H   0  0  0  0  0  0  0  0  0  0  0  0
    2.1730   13.6860   19.2060 C   0  0  0  0  0  0  0  0  0  0  0  0
    3.0500   13.4210   18.1950 F   0  0  0  0  0  0  0  0  0  0  0  0
    2.9410   13.9090   20.3100 F   0  0  0  0  0  0  0  0  0  0  0  0
    1.6000   14.8840   18.8980 F   0  0  0  0  0  0  0  0  0  0  0  0
  1  9  1  0  0  0  0
  1  2  1  0  0  0  0
  2  3  2  0  0  0  0
  4  1  1  0  0  0  0
  5  6  1  0  0  0  0
  6 11  1  0  0  0  0
  6  7  2  0  0  0  0
  7 12  1  0  0  0  0
  8  7  1  0  0  0  0
  8 13  1  0  0  0  0
  9  8  2  0  0  0  0
 10  5  2  0  0  0  0
 10  9  1  0  0  0  0
 14 10  1  0  0  0  0
 15 16  1  6  0  0  0
 15 21  1  0  0  0  0
 15  5  1  0  0  0  0
 17 19  1  0  0  0  0
 17 20  1  0  0  0  0
 17 15  1  0  0  0  0
 18 17  1  0  0  0  0
 22 21  1  0  0  0  0
 22 26  1  0  0  0  0
 23 24  1  0  0  0  0
 23 22  2  0  0  0  0
 24 25  2  0  0  0  0
 25 26  1  0  0  0  0
 25 27  1  0  0  0  0
 26 28  1  0  0  0  0
 28 31  1  0  0  0  0
 28 29  1  0  0  0  0
 30 28  1  0  0  0  0
 32  2  1  0  0  0  0
 33 38  1  0  0  0  0
 33 32  2  0  0  0  0
 34 33  1  0  0  0  0
 35 34  2  0  0  0  0
 35 36  1  0  0  0  0
 36 37  2  0  0  0  0
 37 32  1  0  0  0  0
 39 35  1  0  0  0  0
 40 34  1  0  0  0  0
 40 41  2  0  0  0  0
 42 40  1  0  0  0  0
 43 42  1  0  0  0  0
 43 47  1  0  0  0  0
 44 50  1  0  0  0  0
 44 43  1  0  0  0  0
 45 44  1  0  0  0  0
 45 46  1  0  0  0  0
 46 54  1  0  0  0  0
 46 42  1  0  0  0  0
 48 43  1  0  0  0  0
 49 44  1  0  0  0  0
 51 45  1  0  0  0  0
 52 45  1  0  0  0  0
 53 46  1  0  0  0  0
 55 36  1  0  0  0  0
 55 57  1  0  0  0  0
 56 55  1  0  0  0  0
 58 55  1  0  0  0  0
M  END
>  <MODEL>
21

>  <REMARK>
 VINA RESULT:    -7.317      4.416      9.744
 INTER + INTRA:         -11.783
 INTER:                 -10.931
 INTRA:                  -0.852
 UNBOUND:                -1.044
  Name = 
  9 active torsions:
  status: ('A' for Active; 'I' for Inactive)
    1  A    between atoms: C_1  and  C_2
    2  A    between atoms: C_2  and  S_3
    3  A    between atoms: C_2  and  C_10
    4  A    between atoms: S_3  and  C_4
    5  A    between atoms: N_8  and  C_9
    6  A    between atoms: C_14  and  N_15
    7  A    between atoms: C_16  and  C_18
    8  A    between atoms: C_20  and  C_21
    9  A    between atoms: C_29  and  C_30
                            x       y       z     vdW  Elec       q    Type
                         _______ _______ _______ _____ _____    ______ ____

>  <TORSDO>
F 9

$$$$
=
 OpenBabel07192307433D

 58 61  0  0  1  0  0  0  0  0999 V2000
    1.0900    8.8700   20.0420 N   0  0  0  0  0  0  0  0  0  0  0  0
    0.7200    9.6430   18.9580 C   0  0  0  0  0  0  0  0  0  0  0  0
    0.7830    9.3450   17.7710 O   0  0  0  0  0  0  0  0  0  0  0  0
    0.9300    9.3110   20.9440 H   0  0  0  0  0  0  0  0  0  0  0  0
    3.3270    6.0850   19.0400 C   0  0  0  0  0  0  0  0  0  0  0  0
    2.8810    5.0660   19.8900 C   0  0  0  0  0  0  0  0  0  0  0  0
    1.8500    5.2970   20.8000 C   0  0  0  0  0  0  0  0  0  0  0  0
    1.2400    6.5510   20.8760 C   0  0  0  0  0  0  0  0  0  0  0  0
    1.6610    7.5850   20.0430 C   0  0  0  0  0  0  0  0  0  0  0  0
    2.7060    7.3480   19.1370 C   0  0  0  0  0  0  0  0  0  0  0  0
    3.3310    4.0750   19.8620 H   0  0  0  0  0  0  0  0  0  0  0  0
    1.5200    4.4970   21.4580 H   0  0  0  0  0  0  0  0  0  0  0  0
    0.4380    6.6860   21.5950 H   0  0  0  0  0  0  0  0  0  0  0  0
    3.0470    8.1560   18.4920 H   0  0  0  0  0  0  0  0  0  0  0  0
    4.4480    5.8770   18.0370 C   0  0  2  0  0  0  0  0  0  0  0  0
    5.3810    5.8910   18.6170 H   0  0  0  0  0  0  0  0  0  0  0  0
    4.6280    7.0150   17.0250 C   0  0  0  0  0  0  0  0  0  0  0  0
    4.3990    6.7290   15.9950 H   0  0  0  0  0  0  0  0  0  0  0  0
    3.9520    7.8400   17.2770 H   0  0  0  0  0  0  0  0  0  0  0  0
    5.6490    7.4100   17.0540 H   0  0  0  0  0  0  0  0  0  0  0  0
    4.4510    4.1970   17.3220 S   0  0  0  0  0  0  0  0  0  0  0  0
    5.4950    4.2720   15.9520 C   0  0  0  0  0  0  0  0  0  0  0  0
    5.1700    4.2020   14.6830 N   0  0  0  0  0  0  0  0  0  0  0  0
    6.3180    4.3690   13.9400 N   0  0  0  0  0  0  0  0  0  0  0  0
    7.3110    4.5370   14.7830 C   0  0  0  0  0  0  0  0  0  0  0  0
    6.8440    4.4570   16.0600 N   0  0  0  0  0  0  0  0  0  0  0  0
    8.3470    4.7090   14.5210 H   0  0  0  0  0  0  0  0  0  0  0  0
    7.6380    4.5610   17.2530 C   0  0  0  0  0  0  0  0  0  0  0  0
    7.0300    4.9820   18.0590 H   0  0  0  0  0  0  0  0  0  0  0  0
    8.4830    5.2260   17.0560 H   0  0  0  0  0  0  0  0  0  0  0  0
    7.9870    3.5650   17.5350 H   0  0  0  0  0  0  0  0  0  0  0  0
    0.1750   10.9820   19.3590 C   0  0  0  0  0  0  0  0  0  0  0  0
   -1.1650   11.1230   19.6670 C   0  0  0  0  0  0  0  0  0  0  0  0
   -1.5950   12.3850   20.0560 C   0  0  0  0  0  0  0  0  0  0  0  0
   -0.7100   13.4670   20.0870 C   0  0  0  0  0  0  0  0  0  0  0  0
    0.6220   13.2480   19.7480 C   0  0  0  0  0  0  0  0  0  0  0  0
    1.0780   12.0080   19.4010 N   0  0  0  0  0  0  0  0  0  0  0  0
   -1.8520   10.2870   19.6080 H   0  0  0  0  0  0  0  0  0  0  0  0
   -1.0620   14.4620   20.3510 H   0  0  0  0  0  0  0  0  0  0  0  0
   -3.0200   12.5830   20.3780 C   0  0  0  0  0  0  0  0  0  0  0  0
   -3.8200   12.6150   19.4510 O   0  0  0  0  0  0  0  0  0  0  0  0
   -3.3710   12.7250   21.7050 N   0  0  0  0  0  0  0  0  0  0  0  0
   -4.7610   12.9050   22.0830 C   0  0  0  0  0  0  0  0  0  0  0  0
   -4.7060   13.1520   23.5820 C   0  0  0  0  0  0  0  0  0  0  0  0
   -3.5250   12.2920   24.0160 C   0  0  0  0  0  0  0  0  0  0  0  0
   -2.5380   12.4610   22.8720 C   0  0  0  0  0  0  0  0  0  0  0  0
   -5.2140   13.7300   21.5220 H   0  0  0  0  0  0  0  0  0  0  0  0
   -5.3000   11.9790   21.8480 H   0  0  0  0  0  0  0  0  0  0  0  0
   -5.6380   12.8900   24.0860 H   0  0  0  0  0  0  0  0  0  0  0  0
   -4.4860   14.2070   23.7840 H   0  0  0  0  0  0  0  0  0  0  0  0
   -3.8360   11.2420   24.0890 H   0  0  0  0  0  0  0  0  0  0  0  0
   -3.1080   12.5950   24.9820 H   0  0  0  0  0  0  0  0  0  0  0  0
   -1.9150   11.5770   22.7160 H   0  0  0  0  0  0  0  0  0  0  0  0
   -1.8970   13.3320   23.0350 H   0  0  0  0  0  0  0  0  0  0  0  0
    1.5860   14.4280   19.7640 C   0  0  0  0  0  0  0  0  0  0  0  0
    1.4670   15.2070   18.6510 F   0  0  0  0  0  0  0  0  0  0  0  0
    2.8900   14.0350   19.8000 F   0  0  0  0  0  0  0  0  0  0  0  0
    1.4150   15.2660   20.8260 F   0  0  0  0  0  0  0  0  0  0  0  0
  1  9  1  0  0  0  0
  1  4  1  0  0  0  0
  2 32  1  0  0  0  0
  2  1  1  0  0  0  0
  3  2  2  0  0  0  0
  5 10  2  0  0  0  0
  5  6  1  0  0  0  0
  6  7  2  0  0  0  0
  7  8  1  0  0  0  0
  7 12  1  0  0  0  0
  8 13  1  0  0  0  0
  9  8  2  0  0  0  0
 10  9  1  0  0  0  0
 11  6  1  0  0  0  0
 14 10  1  0  0  0  0
 15 16  1  1  0  0  0
 15  5  1  0  0  0  0
 17 20  1  0  0  0  0
 17 19  1  0  0  0  0
 17 15  1  0  0  0  0
 18 17  1  0  0  0  0
 21 15  1  0  0  0  0
 22 26  1  0  0  0  0
 22 21  1  0  0  0  0
 23 22  2  0  0  0  0
 24 23  1  0  0  0  0
 24 25  2  0  0  0  0
 25 26  1  0  0  0  0
 26 28  1  0  0  0  0
 27 25  1  0  0  0  0
 28 31  1  0  0  0  0
 28 29  1  0  0  0  0
 30 28  1  0  0  0  0
 32 37  2  0  0  0  0
 32 33  1  0  0  0  0
 33 34  2  0  0  0  0
 34 35  1  0  0  0  0
 34 40  1  0  0  0  0
 35 39  1  0  0  0  0
 36 55  1  0  0  0  0
 36 35  2  0  0  0  0
 37 36  1  0  0  0  0
 38 33  1  0  0  0  0
 40 42  1  0  0  0  0
 41 40  2  0  0  0  0
 42 43  1  0  0  0  0
 42 46  1  0  0  0  0
 43 44  1  0  0  0  0
 44 50  1  0  0  0  0
 44 45  1  0  0  0  0
 44 49  1  0  0  0  0
 45 51  1  0  0  0  0
 45 52  1  0  0  0  0
 46 54  1  0  0  0  0
 46 45  1  0  0  0  0
 47 43  1  0  0  0  0
 48 43  1  0  0  0  0
 53 46  1  0  0  0  0
 55 57  1  0  0  0  0
 55 58  1  0  0  0  0
 56 55  1  0  0  0  0
M  END
>  <MODEL>
22

>  <REMARK>
 VINA RESULT:    -7.306      4.730     10.344
 INTER + INTRA:         -11.767
 INTER:                 -10.980
 INTRA:                  -0.787
 UNBOUND:                -1.044
  Name = 
  9 active torsions:
  status: ('A' for Active; 'I' for Inactive)
    1  A    between atoms: C_1  and  C_2
    2  A    between atoms: C_2  and  S_3
    3  A    between atoms: C_2  and  C_10
    4  A    between atoms: S_3  and  C_4
    5  A    between atoms: N_8  and  C_9
    6  A    between atoms: C_14  and  N_15
    7  A    between atoms: C_16  and  C_18
    8  A    between atoms: C_20  and  C_21
    9  A    between atoms: C_29  and  C_30
                            x       y       z     vdW  Elec       q    Type
                         _______ _______ _______ _____ _____    ______ ____

>  <TORSDO>
F 9

$$$$
=
 OpenBabel07192307433D

 58 61  0  0  1  0  0  0  0  0999 V2000
    1.5690    8.3510   19.6620 N   0  0  0  0  0  0  0  0  0  0  0  0
    1.5970    9.1570   18.5400 C   0  0  0  0  0  0  0  0  0  0  0  0
    1.9920    8.8640   17.4180 O   0  0  0  0  0  0  0  0  0  0  0  0
    1.1780    8.7960   20.4880 H   0  0  0  0  0  0  0  0  0  0  0  0
    3.3330    5.2020   18.8030 C   0  0  0  0  0  0  0  0  0  0  0  0
    2.9740    4.3910   19.8870 C   0  0  0  0  0  0  0  0  0  0  0  0
    2.1590    4.8830   20.9060 C   0  0  0  0  0  0  0  0  0  0  0  0
    1.6820    6.1950   20.8600 C   0  0  0  0  0  0  0  0  0  0  0  0
    2.0200    7.0250   19.7940 C   0  0  0  0  0  0  0  0  0  0  0  0
    2.8500    6.5260   18.7780 C   0  0  0  0  0  0  0  0  0  0  0  0
    3.3260    3.3630   19.9600 H   0  0  0  0  0  0  0  0  0  0  0  0
    1.8950    4.2420   21.7440 H   0  0  0  0  0  0  0  0  0  0  0  0
    1.0460    6.5350   21.6710 H   0  0  0  0  0  0  0  0  0  0  0  0
    3.1270    7.1750   17.9490 H   0  0  0  0  0  0  0  0  0  0  0  0
    4.2210    4.7060   17.6740 C   0  0  2  0  0  0  0  0  0  0  0  0
    4.3410    5.5560   16.9880 H   0  0  0  0  0  0  0  0  0  0  0  0
    3.5990    3.6130   16.7980 C   0  0  0  0  0  0  0  0  0  0  0  0
    2.5890    3.3240   17.1030 H   0  0  0  0  0  0  0  0  0  0  0  0
    3.5210    3.9700   15.7650 H   0  0  0  0  0  0  0  0  0  0  0  0
    4.2240    2.7140   16.7860 H   0  0  0  0  0  0  0  0  0  0  0  0
    5.9340    4.3860   18.2140 S   0  0  0  0  0  0  0  0  0  0  0  0
    6.7790    5.8740   18.0010 C   0  0  0  0  0  0  0  0  0  0  0  0
    6.5870    6.7890   17.0810 N   0  0  0  0  0  0  0  0  0  0  0  0
    7.4470    7.8330   17.3330 N   0  0  0  0  0  0  0  0  0  0  0  0
    8.1410    7.5230   18.4040 C   0  0  0  0  0  0  0  0  0  0  0  0
    7.7740    6.2860   18.8430 N   0  0  0  0  0  0  0  0  0  0  0  0
    8.8960    8.1390   18.8760 H   0  0  0  0  0  0  0  0  0  0  0  0
    8.3320    5.5940   19.9720 C   0  0  0  0  0  0  0  0  0  0  0  0
    8.7290    6.3220   20.6840 H   0  0  0  0  0  0  0  0  0  0  0  0
    9.1450    4.9530   19.6230 H   0  0  0  0  0  0  0  0  0  0  0  0
    7.5480    5.0020   20.4480 H   0  0  0  0  0  0  0  0  0  0  0  0
    1.0540   10.5310   18.8000 C   0  0  0  0  0  0  0  0  0  0  0  0
   -0.2770   10.7010   19.1320 C   0  0  0  0  0  0  0  0  0  0  0  0
   -0.7040   11.9980   19.3850 C   0  0  0  0  0  0  0  0  0  0  0  0
    0.1720   13.0800   19.2620 C   0  0  0  0  0  0  0  0  0  0  0  0
    1.4950   12.8290   18.9080 C   0  0  0  0  0  0  0  0  0  0  0  0
    1.9500   11.5590   18.6930 N   0  0  0  0  0  0  0  0  0  0  0  0
   -0.9590    9.8600   19.1920 H   0  0  0  0  0  0  0  0  0  0  0  0
   -0.1800   14.0980   19.4190 H   0  0  0  0  0  0  0  0  0  0  0  0
   -2.1210   12.2260   19.7270 C   0  0  0  0  0  0  0  0  0  0  0  0
   -2.9390   12.2300   18.8160 O   0  0  0  0  0  0  0  0  0  0  0  0
   -2.4420   12.4250   21.0540 N   0  0  0  0  0  0  0  0  0  0  0  0
   -3.8230   12.6360   21.4520 C   0  0  0  0  0  0  0  0  0  0  0  0
   -3.7350   12.9410   22.9390 C   0  0  0  0  0  0  0  0  0  0  0  0
   -2.5550   12.0860   23.3840 C   0  0  0  0  0  0  0  0  0  0  0  0
   -1.5890   12.1970   22.2140 C   0  0  0  0  0  0  0  0  0  0  0  0
   -4.2770   13.4430   20.8680 H   0  0  0  0  0  0  0  0  0  0  0  0
   -4.3760   11.7080   21.2660 H   0  0  0  0  0  0  0  0  0  0  0  0
   -4.6590   12.7110   23.4720 H   0  0  0  0  0  0  0  0  0  0  0  0
   -3.4980   14.0000   23.0950 H   0  0  0  0  0  0  0  0  0  0  0  0
   -2.8760   11.0430   23.5040 H   0  0  0  0  0  0  0  0  0  0  0  0
   -2.1150   12.4210   24.3280 H   0  0  0  0  0  0  0  0  0  0  0  0
   -0.9800   11.3000   22.0810 H   0  0  0  0  0  0  0  0  0  0  0  0
   -0.9350   13.0650   22.3300 H   0  0  0  0  0  0  0  0  0  0  0  0
    2.4490   14.0080   18.7560 C   0  0  0  0  0  0  0  0  0  0  0  0
    2.9450   14.4270   19.9560 F   0  0  0  0  0  0  0  0  0  0  0  0
    1.8440   15.0990   18.2070 F   0  0  0  0  0  0  0  0  0  0  0  0
    3.5330   13.7440   17.9740 F   0  0  0  0  0  0  0  0  0  0  0  0
  1  9  1  0  0  0  0
  1  4  1  0  0  0  0
  2 32  1  0  0  0  0
  2  1  1  0  0  0  0
  3  2  2  0  0  0  0
  5  6  1  0  0  0  0
  6 11  1  0  0  0  0
  6  7  2  0  0  0  0
  7 12  1  0  0  0  0
  8  7  1  0  0  0  0
  8 13  1  0  0  0  0
  9  8  2  0  0  0  0
 10  5  2  0  0  0  0
 10  9  1  0  0  0  0
 14 10  1  0  0  0  0
 15 16  1  6  0  0  0
 15 21  1  0  0  0  0
 15  5  1  0  0  0  0
 17 18  1  0  0  0  0
 17 15  1  0  0  0  0
 19 17  1  0  0  0  0
 20 17  1  0  0  0  0
 22 21  1  0  0  0  0
 22 26  1  0  0  0  0
 23 24  1  0  0  0  0
 23 22  2  0  0  0  0
 24 25  2  0  0  0  0
 25 26  1  0  0  0  0
 25 27  1  0  0  0  0
 26 28  1  0  0  0  0
 28 31  1  0  0  0  0
 28 29  1  0  0  0  0
 30 28  1  0  0  0  0
 32 33  1  0  0  0  0
 33 38  1  0  0  0  0
 33 34  2  0  0  0  0
 34 40  1  0  0  0  0
 35 34  1  0  0  0  0
 35 39  1  0  0  0  0
 36 35  2  0  0  0  0
 37 32  2  0  0  0  0
 37 36  1  0  0  0  0
 40 42  1  0  0  0  0
 41 40  2  0  0  0  0
 42 43  1  0  0  0  0
 42 46  1  0  0  0  0
 43 44  1  0  0  0  0
 44 50  1  0  0  0  0
 44 45  1  0  0  0  0
 44 49  1  0  0  0  0
 45 51  1  0  0  0  0
 45 52  1  0  0  0  0
 46 54  1  0  0  0  0
 46 45  1  0  0  0  0
 47 43  1  0  0  0  0
 48 43  1  0  0  0  0
 53 46  1  0  0  0  0
 55 36  1  0  0  0  0
 55 56  1  0  0  0  0
 57 55  1  0  0  0  0
 58 55  1  0  0  0  0
M  END
>  <MODEL>
23

>  <REMARK>
 VINA RESULT:    -7.283      4.791     10.102
 INTER + INTRA:         -11.732
 INTER:                 -11.024
 INTRA:                  -0.708
 UNBOUND:                -1.044
  Name = 
  9 active torsions:
  status: ('A' for Active; 'I' for Inactive)
    1  A    between atoms: C_1  and  C_2
    2  A    between atoms: C_2  and  S_3
    3  A    between atoms: C_2  and  C_10
    4  A    between atoms: S_3  and  C_4
    5  A    between atoms: N_8  and  C_9
    6  A    between atoms: C_14  and  N_15
    7  A    between atoms: C_16  and  C_18
    8  A    between atoms: C_20  and  C_21
    9  A    between atoms: C_29  and  C_30
                            x       y       z     vdW  Elec       q    Type
                         _______ _______ _______ _____ _____    ______ ____

>  <TORSDO>
F 9

$$$$
=
 OpenBabel07192307433D

 58 61  0  0  1  0  0  0  0  0999 V2000
    0.4640    9.2880   18.9200 N   0  0  0  0  0  0  0  0  0  0  0  0
    1.7060    9.2010   18.3210 C   0  0  0  0  0  0  0  0  0  0  0  0
    2.3210   10.0880   17.7430 O   0  0  0  0  0  0  0  0  0  0  0  0
    0.1520    8.4280   19.3630 H   0  0  0  0  0  0  0  0  0  0  0  0
   -0.6880   12.7380   19.6490 C   0  0  0  0  0  0  0  0  0  0  0  0
   -2.0090   12.6810   19.1910 C   0  0  0  0  0  0  0  0  0  0  0  0
   -2.5200   11.5090   18.6320 C   0  0  0  0  0  0  0  0  0  0  0  0
   -1.7200   10.3700   18.5250 C   0  0  0  0  0  0  0  0  0  0  0  0
   -0.4020   10.3950   18.9740 C   0  0  0  0  0  0  0  0  0  0  0  0
    0.1070   11.5810   19.5240 C   0  0  0  0  0  0  0  0  0  0  0  0
   -2.6640   13.5490   19.2550 H   0  0  0  0  0  0  0  0  0  0  0  0
   -3.5460   11.4840   18.2740 H   0  0  0  0  0  0  0  0  0  0  0  0
   -2.1590    9.4780   18.0890 H   0  0  0  0  0  0  0  0  0  0  0  0
    1.1410   11.6090   19.8660 H   0  0  0  0  0  0  0  0  0  0  0  0
   -0.0920   13.9950   20.2610 C   0  0  2  0  0  0  0  0  0  0  0  0
   -0.8640   14.7710   20.1710 H   0  0  0  0  0  0  0  0  0  0  0  0
    1.1050   14.5770   19.5010 C   0  0  0  0  0  0  0  0  0  0  0  0
    1.3930   13.9950   18.6210 H   0  0  0  0  0  0  0  0  0  0  0  0
    0.8590   15.5830   19.1420 H   0  0  0  0  0  0  0  0  0  0  0  0
    1.9800   14.6690   20.1530 H   0  0  0  0  0  0  0  0  0  0  0  0
    0.1290   13.8610   22.0690 S   0  0  0  0  0  0  0  0  0  0  0  0
   -1.4220   13.4500   22.7010 C   0  0  0  0  0  0  0  0  0  0  0  0
   -2.4450   14.2420   22.9130 N   0  0  0  0  0  0  0  0  0  0  0  0
   -3.4930   13.4730   23.3670 N   0  0  0  0  0  0  0  0  0  0  0  0
   -3.0750   12.2290   23.4170 C   0  0  0  0  0  0  0  0  0  0  0  0
   -1.7690   12.1700   23.0330 N   0  0  0  0  0  0  0  0  0  0  0  0
   -3.6610   11.3700   23.7200 H   0  0  0  0  0  0  0  0  0  0  0  0
   -0.9580   10.9850   22.9870 C   0  0  0  0  0  0  0  0  0  0  0  0
   -1.5510   10.1260   23.3150 H   0  0  0  0  0  0  0  0  0  0  0  0
   -0.1090   11.1140   23.6620 H   0  0  0  0  0  0  0  0  0  0  0  0
   -0.6180   10.8280   21.9620 H   0  0  0  0  0  0  0  0  0  0  0  0
    2.3150    7.8360   18.4450 C   0  0  0  0  0  0  0  0  0  0  0  0
    3.3890    7.4790   17.6520 C   0  0  0  0  0  0  0  0  0  0  0  0
    3.9200    6.2090   17.8400 C   0  0  0  0  0  0  0  0  0  0  0  0
    3.3540    5.3240   18.7620 C   0  0  0  0  0  0  0  0  0  0  0  0
    2.2630    5.7510   19.5130 C   0  0  0  0  0  0  0  0  0  0  0  0
    1.7480    7.0090   19.3760 N   0  0  0  0  0  0  0  0  0  0  0  0
    3.8010    8.1590   16.9150 H   0  0  0  0  0  0  0  0  0  0  0  0
    3.7470    4.3150   18.8730 H   0  0  0  0  0  0  0  0  0  0  0  0
    5.0570    5.7820   17.0030 C   0  0  0  0  0  0  0  0  0  0  0  0
    4.9270    5.8350   15.7860 O   0  0  0  0  0  0  0  0  0  0  0  0
    6.2010    5.3450   17.6390 N   0  0  0  0  0  0  0  0  0  0  0  0
    7.3580    4.9300   16.8670 C   0  0  0  0  0  0  0  0  0  0  0  0
    8.3300    4.4060   17.9120 C   0  0  0  0  0  0  0  0  0  0  0  0
    8.0410    5.3010   19.1110 C   0  0  0  0  0  0  0  0  0  0  0  0
    6.5310    5.4770   19.0530 C   0  0  0  0  0  0  0  0  0  0  0  0
    7.0780    4.1810   16.1180 H   0  0  0  0  0  0  0  0  0  0  0  0
    7.7590    5.8120   16.3530 H   0  0  0  0  0  0  0  0  0  0  0  0
    9.3690    4.4520   17.5810 H   0  0  0  0  0  0  0  0  0  0  0  0
    8.0900    3.3670   18.1640 H   0  0  0  0  0  0  0  0  0  0  0  0
    8.5350    6.2720   18.9780 H   0  0  0  0  0  0  0  0  0  0  0  0
    8.3790    4.8700   20.0580 H   0  0  0  0  0  0  0  0  0  0  0  0
    6.2020    6.4430   19.4430 H   0  0  0  0  0  0  0  0  0  0  0  0
    6.0240    4.6750   19.5960 H   0  0  0  0  0  0  0  0  0  0  0  0
    1.6330    4.7830   20.5070 C   0  0  0  0  0  0  0  0  0  0  0  0
    1.6560    3.4950   20.0580 F   0  0  0  0  0  0  0  0  0  0  0  0
    0.3220    5.0650   20.7480 F   0  0  0  0  0  0  0  0  0  0  0  0
    2.2450    4.7660   21.7250 F   0  0  0  0  0  0  0  0  0  0  0  0
  1  9  1  0  0  0  0
  1  4  1  0  0  0  0
  2 32  1  0  0  0  0
  2  1  1  0  0  0  0
  3  2  2  0  0  0  0
  5 15  1  0  0  0  0
  6 11  1  0  0  0  0
  6  5  2  0  0  0  0
  7  6  1  0  0  0  0
  8  7  2  0  0  0  0
  8  9  1  0  0  0  0
  9 10  2  0  0  0  0
 10  5  1  0  0  0  0
 10 14  1  0  0  0  0
 12  7  1  0  0  0  0
 13  8  1  0  0  0  0
 15 16  1  6  0  0  0
 15 21  1  0  0  0  0
 17 20  1  0  0  0  0
 17 15  1  0  0  0  0
 18 17  1  0  0  0  0
 19 17  1  0  0  0  0
 21 22  1  0  0  0  0
 22 23  2  0  0  0  0
 22 26  1  0  0  0  0
 23 24  1  0  0  0  0
 24 25  2  0  0  0  0
 25 27  1  0  0  0  0
 26 25  1  0  0  0  0
 28 26  1  0  0  0  0
 28 29  1  0  0  0  0
 28 30  1  0  0  0  0
 31 28  1  0  0  0  0
 32 37  1  0  0  0  0
 33 34  1  0  0  0  0
 33 32  2  0  0  0  0
 34 35  2  0  0  0  0
 35 39  1  0  0  0  0
 35 36  1  0  0  0  0
 36 55  1  0  0  0  0
 37 36  2  0  0  0  0
 38 33  1  0  0  0  0
 40 42  1  0  0  0  0
 40 34  1  0  0  0  0
 41 40  2  0  0  0  0
 42 46  1  0  0  0  0
 43 42  1  0  0  0  0
 43 44  1  0  0  0  0
 44 50  1  0  0  0  0
 44 45  1  0  0  0  0
 45 52  1  0  0  0  0
 46 45  1  0  0  0  0
 46 53  1  0  0  0  0
 46 54  1  0  0  0  0
 47 43  1  0  0  0  0
 48 43  1  0  0  0  0
 49 44  1  0  0  0  0
 51 45  1  0  0  0  0
 55 57  1  0  0  0  0
 55 58  1  0  0  0  0
 56 55  1  0  0  0  0
M  END
>  <MODEL>
24

>  <REMARK>
 VINA RESULT:    -7.264      2.659      3.973
 INTER + INTRA:         -11.706
 INTER:                 -10.724
 INTRA:                  -0.982
 UNBOUND:                -1.044
  Name = 
  9 active torsions:
  status: ('A' for Active; 'I' for Inactive)
    1  A    between atoms: C_1  and  C_2
    2  A    between atoms: C_2  and  S_3
    3  A    between atoms: C_2  and  C_10
    4  A    between atoms: S_3  and  C_4
    5  A    between atoms: N_8  and  C_9
    6  A    between atoms: C_14  and  N_15
    7  A    between atoms: C_16  and  C_18
    8  A    between atoms: C_20  and  C_21
    9  A    between atoms: C_29  and  C_30
                            x       y       z     vdW  Elec       q    Type
                         _______ _______ _______ _____ _____    ______ ____

>  <TORSDO>
F 9

$$$$
=
 OpenBabel07192307433D

 58 61  0  0  1  0  0  0  0  0999 V2000
    1.2190    8.6510   19.9690 N   0  0  0  0  0  0  0  0  0  0  0  0
    0.9900    9.4940   21.0390 C   0  0  0  0  0  0  0  0  0  0  0  0
    1.2690    9.3010   22.2170 O   0  0  0  0  0  0  0  0  0  0  0  0
    0.9240    9.0260   19.0710 H   0  0  0  0  0  0  0  0  0  0  0  0
    3.4320    5.8460   18.9730 C   0  0  0  0  0  0  0  0  0  0  0  0
    2.9940    4.8390   19.8410 C   0  0  0  0  0  0  0  0  0  0  0  0
    1.9760    5.0860   20.7630 C   0  0  0  0  0  0  0  0  0  0  0  0
    1.3720    6.3430   20.8310 C   0  0  0  0  0  0  0  0  0  0  0  0
    1.7850    7.3640   19.9780 C   0  0  0  0  0  0  0  0  0  0  0  0
    2.8170    7.1110   19.0620 C   0  0  0  0  0  0  0  0  0  0  0  0
    3.4400    3.8460   19.8200 H   0  0  0  0  0  0  0  0  0  0  0  0
    1.6520    4.2950   21.4350 H   0  0  0  0  0  0  0  0  0  0  0  0
    0.5800    6.4900   21.5580 H   0  0  0  0  0  0  0  0  0  0  0  0
    3.1510    7.9100   18.4020 H   0  0  0  0  0  0  0  0  0  0  0  0
    4.5390    5.6200   17.9570 C   0  0  2  0  0  0  0  0  0  0  0  0
    5.4680    5.5290   18.5360 H   0  0  0  0  0  0  0  0  0  0  0  0
    4.8040    6.8040   17.0200 C   0  0  0  0  0  0  0  0  0  0  0  0
    3.9050    7.3640   16.7510 H   0  0  0  0  0  0  0  0  0  0  0  0
    5.4790    7.5160   17.5090 H   0  0  0  0  0  0  0  0  0  0  0  0
    5.2930    6.4740   16.0970 H   0  0  0  0  0  0  0  0  0  0  0  0
    4.4210    3.9930   17.1370 S   0  0  0  0  0  0  0  0  0  0  0  0
    5.4380    4.0950   15.7470 C   0  0  0  0  0  0  0  0  0  0  0  0
    5.0890    4.0350   14.4840 N   0  0  0  0  0  0  0  0  0  0  0  0
    6.2200    4.2220   13.7210 N   0  0  0  0  0  0  0  0  0  0  0  0
    7.2280    4.3920   14.5460 C   0  0  0  0  0  0  0  0  0  0  0  0
    6.7870    4.2920   15.8320 N   0  0  0  0  0  0  0  0  0  0  0  0
    8.2570    4.5770   14.2660 H   0  0  0  0  0  0  0  0  0  0  0  0
    7.6030    4.3920   17.0100 C   0  0  0  0  0  0  0  0  0  0  0  0
    7.5280    5.4030   17.4200 H   0  0  0  0  0  0  0  0  0  0  0  0
    8.6410    4.1910   16.7360 H   0  0  0  0  0  0  0  0  0  0  0  0
    7.2500    3.6680   17.7480 H   0  0  0  0  0  0  0  0  0  0  0  0
    0.3330   10.7810   20.6340 C   0  0  0  0  0  0  0  0  0  0  0  0
   -0.9660   10.7810   20.1650 C   0  0  0  0  0  0  0  0  0  0  0  0
   -1.5190   12.0110   19.8340 C   0  0  0  0  0  0  0  0  0  0  0  0
   -0.7680   13.1860   19.9330 C   0  0  0  0  0  0  0  0  0  0  0  0
    0.5400   13.1020   20.4000 C   0  0  0  0  0  0  0  0  0  0  0  0
    1.0940   11.9100   20.7700 N   0  0  0  0  0  0  0  0  0  0  0  0
   -1.5320    9.8620   20.0580 H   0  0  0  0  0  0  0  0  0  0  0  0
   -1.1930   14.1420   19.6310 H   0  0  0  0  0  0  0  0  0  0  0  0
   -2.8990   12.0550   19.3140 C   0  0  0  0  0  0  0  0  0  0  0  0
   -3.7640   12.5580   20.0200 O   0  0  0  0  0  0  0  0  0  0  0  0
   -3.1370   11.5220   18.0640 N   0  0  0  0  0  0  0  0  0  0  0  0
   -4.4720   11.5530   17.4930 C   0  0  0  0  0  0  0  0  0  0  0  0
   -4.3380   10.7670   16.1990 C   0  0  0  0  0  0  0  0  0  0  0  0
   -2.9180   11.0980   15.7550 C   0  0  0  0  0  0  0  0  0  0  0  0
   -2.1470   11.1320   17.0660 C   0  0  0  0  0  0  0  0  0  0  0  0
   -5.2020   11.1260   18.1890 H   0  0  0  0  0  0  0  0  0  0  0  0
   -4.7360   12.6000   17.3010 H   0  0  0  0  0  0  0  0  0  0  0  0
   -5.0940   11.0390   15.4610 H   0  0  0  0  0  0  0  0  0  0  0  0
   -4.4180    9.6920   16.3990 H   0  0  0  0  0  0  0  0  0  0  0  0
   -2.8970   12.0890   15.2850 H   0  0  0  0  0  0  0  0  0  0  0  0
   -2.5110   10.3720   15.0450 H   0  0  0  0  0  0  0  0  0  0  0  0
   -1.3120   11.8360   17.0480 H   0  0  0  0  0  0  0  0  0  0  0  0
   -1.7770   10.1370   17.3270 H   0  0  0  0  0  0  0  0  0  0  0  0
    1.3680   14.3790   20.4930 C   0  0  0  0  0  0  0  0  0  0  0  0
    1.3190   15.1110   19.3430 F   0  0  0  0  0  0  0  0  0  0  0  0
    2.6890   14.1280   20.7140 F   0  0  0  0  0  0  0  0  0  0  0  0
    0.9730   15.2210   21.4890 F   0  0  0  0  0  0  0  0  0  0  0  0
  1  9  1  0  0  0  0
  1  2  1  0  0  0  0
  2  3  2  0  0  0  0
  4  1  1  0  0  0  0
  5 10  2  0  0  0  0
  5  6  1  0  0  0  0
  6  7  2  0  0  0  0
  7  8  1  0  0  0  0
  7 12  1  0  0  0  0
  8 13  1  0  0  0  0
  9  8  2  0  0  0  0
 10  9  1  0  0  0  0
 11  6  1  0  0  0  0
 14 10  1  0  0  0  0
 15 16  1  1  0  0  0
 15  5  1  0  0  0  0
 17 19  1  0  0  0  0
 17 15  1  0  0  0  0
 18 17  1  0  0  0  0
 20 17  1  0  0  0  0
 21 15  1  0  0  0  0
 22 26  1  0  0  0  0
 22 21  1  0  0  0  0
 23 22  2  0  0  0  0
 24 23  1  0  0  0  0
 24 25  2  0  0  0  0
 25 26  1  0  0  0  0
 26 28  1  0  0  0  0
 27 25  1  0  0  0  0
 28 29  1  0  0  0  0
 28 31  1  0  0  0  0
 30 28  1  0  0  0  0
 32 37  1  0  0  0  0
 32  2  1  0  0  0  0
 33 32  2  0  0  0  0
 34 35  2  0  0  0  0
 34 33  1  0  0  0  0
 35 36  1  0  0  0  0
 36 55  1  0  0  0  0
 36 37  2  0  0  0  0
 38 33  1  0  0  0  0
 39 35  1  0  0  0  0
 40 34  1  0  0  0  0
 40 41  2  0  0  0  0
 42 40  1  0  0  0  0
 43 42  1  0  0  0  0
 43 47  1  0  0  0  0
 44 50  1  0  0  0  0
 44 43  1  0  0  0  0
 45 44  1  0  0  0  0
 45 46  1  0  0  0  0
 46 54  1  0  0  0  0
 46 42  1  0  0  0  0
 48 43  1  0  0  0  0
 49 44  1  0  0  0  0
 51 45  1  0  0  0  0
 52 45  1  0  0  0  0
 53 46  1  0  0  0  0
 55 57  1  0  0  0  0
 55 58  1  0  0  0  0
 56 55  1  0  0  0  0
M  END
>  <MODEL>
25

>  <REMARK>
 VINA RESULT:    -7.262      4.404      9.790
 INTER + INTRA:         -11.702
 INTER:                 -10.979
 INTRA:                  -0.723
 UNBOUND:                -1.044
  Name = 
  9 active torsions:
  status: ('A' for Active; 'I' for Inactive)
    1  A    between atoms: C_1  and  C_2
    2  A    between atoms: C_2  and  S_3
    3  A    between atoms: C_2  and  C_10
    4  A    between atoms: S_3  and  C_4
    5  A    between atoms: N_8  and  C_9
    6  A    between atoms: C_14  and  N_15
    7  A    between atoms: C_16  and  C_18
    8  A    between atoms: C_20  and  C_21
    9  A    between atoms: C_29  and  C_30
                            x       y       z     vdW  Elec       q    Type
                         _______ _______ _______ _____ _____    ______ ____

>  <TORSDO>
F 9

$$$$
=
 OpenBabel07192307433D

 58 61  0  0  1  0  0  0  0  0999 V2000
    1.5050    8.3800   19.9090 N   0  0  0  0  0  0  0  0  0  0  0  0
    2.0170    8.5140   18.6330 C   0  0  0  0  0  0  0  0  0  0  0  0
    1.9580    9.4960   17.9030 O   0  0  0  0  0  0  0  0  0  0  0  0
    1.6910    7.4790   20.3420 H   0  0  0  0  0  0  0  0  0  0  0  0
   -0.4500   11.4490   20.6310 C   0  0  0  0  0  0  0  0  0  0  0  0
   -0.6990   11.2910   22.0000 C   0  0  0  0  0  0  0  0  0  0  0  0
   -0.2310   10.1690   22.6850 C   0  0  0  0  0  0  0  0  0  0  0  0
    0.4990    9.1850   22.0150 C   0  0  0  0  0  0  0  0  0  0  0  0
    0.7640    9.3140   20.6540 C   0  0  0  0  0  0  0  0  0  0  0  0
    0.2810   10.4400   19.9700 C   0  0  0  0  0  0  0  0  0  0  0  0
   -1.2650   12.0360   22.5570 H   0  0  0  0  0  0  0  0  0  0  0  0
   -0.4390   10.0580   23.7460 H   0  0  0  0  0  0  0  0  0  0  0  0
    0.8480    8.3310   22.5870 H   0  0  0  0  0  0  0  0  0  0  0  0
    0.4750   10.5410   18.9040 H   0  0  0  0  0  0  0  0  0  0  0  0
   -0.9430   12.6540   19.8480 C   0  0  2  0  0  0  0  0  0  0  0  0
   -0.4290   12.6150   18.8770 H   0  0  0  0  0  0  0  0  0  0  0  0
   -0.5300   14.0120   20.4270 C   0  0  0  0  0  0  0  0  0  0  0  0
   -1.1740   14.8380   20.1140 H   0  0  0  0  0  0  0  0  0  0  0  0
   -0.5810   13.9750   21.5210 H   0  0  0  0  0  0  0  0  0  0  0  0
    0.5020   14.2590   20.1570 H   0  0  0  0  0  0  0  0  0  0  0  0
   -2.7000   12.5140   19.3730 S   0  0  0  0  0  0  0  0  0  0  0  0
   -2.7300   11.4990   17.9800 C   0  0  0  0  0  0  0  0  0  0  0  0
   -1.7490   11.2350   17.1500 N   0  0  0  0  0  0  0  0  0  0  0  0
   -2.2100   10.3280   16.2220 N   0  0  0  0  0  0  0  0  0  0  0  0
   -3.4620   10.0650   16.5160 C   0  0  0  0  0  0  0  0  0  0  0  0
   -3.8410   10.8000   17.5990 N   0  0  0  0  0  0  0  0  0  0  0  0
   -4.1110    9.3770   15.9880 H   0  0  0  0  0  0  0  0  0  0  0  0
   -5.1470   10.8030   18.1980 C   0  0  0  0  0  0  0  0  0  0  0  0
   -5.7730   10.0510   17.7100 H   0  0  0  0  0  0  0  0  0  0  0  0
   -5.5950   11.7900   18.0560 H   0  0  0  0  0  0  0  0  0  0  0  0
   -5.0500   10.5700   19.2600 H   0  0  0  0  0  0  0  0  0  0  0  0
    2.7260    7.2800   18.1600 C   0  0  0  0  0  0  0  0  0  0  0  0
    2.2300    6.0290   18.4750 C   0  0  0  0  0  0  0  0  0  0  0  0
    2.9220    4.9310   17.9800 C   0  0  0  0  0  0  0  0  0  0  0  0
    4.0930    5.0960   17.2350 C   0  0  0  0  0  0  0  0  0  0  0  0
    4.5390    6.3890   16.9730 C   0  0  0  0  0  0  0  0  0  0  0  0
    3.8540    7.4850   17.4140 N   0  0  0  0  0  0  0  0  0  0  0  0
    1.3390    5.9080   19.0810 H   0  0  0  0  0  0  0  0  0  0  0  0
    4.6550    4.2310   16.8880 H   0  0  0  0  0  0  0  0  0  0  0  0
    2.4350    3.5770   18.3060 C   0  0  0  0  0  0  0  0  0  0  0  0
    2.3520    2.7620   17.3960 O   0  0  0  0  0  0  0  0  0  0  0  0
    2.0960    3.3090   19.6160 N   0  0  0  0  0  0  0  0  0  0  0  0
    1.6270    1.9890   19.9980 C   0  0  0  0  0  0  0  0  0  0  0  0
    1.2430    2.1440   21.4610 C   0  0  0  0  0  0  0  0  0  0  0  0
    2.2550    3.1660   21.9630 C   0  0  0  0  0  0  0  0  0  0  0  0
    2.3880    4.1240   20.7890 C   0  0  0  0  0  0  0  0  0  0  0  0
    0.7960    1.6710   19.3610 H   0  0  0  0  0  0  0  0  0  0  0  0
    2.4580    1.2840   19.8750 H   0  0  0  0  0  0  0  0  0  0  0  0
    1.2780    1.2000   22.0080 H   0  0  0  0  0  0  0  0  0  0  0  0
    0.2320    2.5580   21.5450 H   0  0  0  0  0  0  0  0  0  0  0  0
    3.2180    2.6750   22.1540 H   0  0  0  0  0  0  0  0  0  0  0  0
    1.9370    3.6670   22.8830 H   0  0  0  0  0  0  0  0  0  0  0  0
    3.3820    4.5710   20.7170 H   0  0  0  0  0  0  0  0  0  0  0  0
    1.6370    4.9170   20.8460 H   0  0  0  0  0  0  0  0  0  0  0  0
    5.8240    6.5730   16.1760 C   0  0  0  0  0  0  0  0  0  0  0  0
    5.5820    6.8770   14.8690 F   0  0  0  0  0  0  0  0  0  0  0  0
    6.5890    5.4450   16.1560 F   0  0  0  0  0  0  0  0  0  0  0  0
    6.6300    7.5660   16.6480 F   0  0  0  0  0  0  0  0  0  0  0  0
  1  4  1  0  0  0  0
  1  9  1  0  0  0  0
  2  1  1  0  0  0  0
  3  2  2  0  0  0  0
  5  6  1  0  0  0  0
  6 11  1  0  0  0  0
  6  7  2  0  0  0  0
  7 12  1  0  0  0  0
  8 13  1  0  0  0  0
  8  7  1  0  0  0  0
  9  8  2  0  0  0  0
 10  5  2  0  0  0  0
 10  9  1  0  0  0  0
 14 10  1  0  0  0  0
 15 16  1  6  0  0  0
 15 17  1  0  0  0  0
 15  5  1  0  0  0  0
 17 19  1  0  0  0  0
 18 17  1  0  0  0  0
 20 17  1  0  0  0  0
 21 15  1  0  0  0  0
 22 21  1  0  0  0  0
 23 22  2  0  0  0  0
 24 25  2  0  0  0  0
 24 23  1  0  0  0  0
 25 26  1  0  0  0  0
 26 22  1  0  0  0  0
 26 28  1  0  0  0  0
 27 25  1  0  0  0  0
 28 31  1  0  0  0  0
 29 28  1  0  0  0  0
 30 28  1  0  0  0  0
 32 33  1  0  0  0  0
 32  2  1  0  0  0  0
 33 38  1  0  0  0  0
 34 40  1  0  0  0  0
 34 33  2  0  0  0  0
 35 34  1  0  0  0  0
 36 35  2  0  0  0  0
 36 37  1  0  0  0  0
 37 32  2  0  0  0  0
 39 35  1  0  0  0  0
 40 42  1  0  0  0  0
 41 40  2  0  0  0  0
 42 43  1  0  0  0  0
 42 46  1  0  0  0  0
 43 44  1  0  0  0  0
 44 50  1  0  0  0  0
 44 45  1  0  0  0  0
 44 49  1  0  0  0  0
 45 51  1  0  0  0  0
 45 52  1  0  0  0  0
 46 54  1  0  0  0  0
 46 45  1  0  0  0  0
 47 43  1  0  0  0  0
 48 43  1  0  0  0  0
 53 46  1  0  0  0  0
 55 58  1  0  0  0  0
 55 36  1  0  0  0  0
 56 55  1  0  0  0  0
 57 55  1  0  0  0  0
M  END
>  <MODEL>
26

>  <REMARK>
 VINA RESULT:    -7.250      2.798      4.160
 INTER + INTRA:         -11.684
 INTER:                 -11.355
 INTRA:                  -0.329
 UNBOUND:                -1.044
  Name = 
  9 active torsions:
  status: ('A' for Active; 'I' for Inactive)
    1  A    between atoms: C_1  and  C_2
    2  A    between atoms: C_2  and  S_3
    3  A    between atoms: C_2  and  C_10
    4  A    between atoms: S_3  and  C_4
    5  A    between atoms: N_8  and  C_9
    6  A    between atoms: C_14  and  N_15
    7  A    between atoms: C_16  and  C_18
    8  A    between atoms: C_20  and  C_21
    9  A    between atoms: C_29  and  C_30
                            x       y       z     vdW  Elec       q    Type
                         _______ _______ _______ _____ _____    ______ ____

>  <TORSDO>
F 9

$$$$
=
 OpenBabel07192307433D

 58 61  0  0  1  0  0  0  0  0999 V2000
    2.1440    7.8190   18.2500 N   0  0  0  0  0  0  0  0  0  0  0  0
    1.6350    8.3600   19.4140 C   0  0  0  0  0  0  0  0  0  0  0  0
    1.5710    7.8330   20.5180 O   0  0  0  0  0  0  0  0  0  0  0  0
    2.1170    8.4460   17.4500 H   0  0  0  0  0  0  0  0  0  0  0  0
    4.6610    5.1940   17.5170 C   0  0  0  0  0  0  0  0  0  0  0  0
    3.8680    4.0410   17.5700 C   0  0  0  0  0  0  0  0  0  0  0  0
    2.5060    4.1270   17.8570 C   0  0  0  0  0  0  0  0  0  0  0  0
    1.9080    5.3670   18.0910 C   0  0  0  0  0  0  0  0  0  0  0  0
    2.6700    6.5310   18.0430 C   0  0  0  0  0  0  0  0  0  0  0  0
    4.0420    6.4360   17.7660 C   0  0  0  0  0  0  0  0  0  0  0  0
    4.2970    3.0570   17.3950 H   0  0  0  0  0  0  0  0  0  0  0  0
    1.9050    3.2220   17.9010 H   0  0  0  0  0  0  0  0  0  0  0  0
    0.8440    5.3880   18.3050 H   0  0  0  0  0  0  0  0  0  0  0  0
    4.6450    7.3430   17.7390 H   0  0  0  0  0  0  0  0  0  0  0  0
    6.1490    5.1460   17.2110 C   0  0  2  0  0  0  0  0  0  0  0  0
    6.3700    4.1020   16.9480 H   0  0  0  0  0  0  0  0  0  0  0  0
    7.0620    5.4240   18.4100 C   0  0  0  0  0  0  0  0  0  0  0  0
    8.0540    5.7930   18.1330 H   0  0  0  0  0  0  0  0  0  0  0  0
    6.6100    6.1940   19.0460 H   0  0  0  0  0  0  0  0  0  0  0  0
    7.1900    4.5270   19.0250 H   0  0  0  0  0  0  0  0  0  0  0  0
    6.5830    6.0420   15.6810 S   0  0  0  0  0  0  0  0  0  0  0  0
    6.3650    4.9110   14.3980 C   0  0  0  0  0  0  0  0  0  0  0  0
    5.4230    4.0080   14.2660 N   0  0  0  0  0  0  0  0  0  0  0  0
    5.6080    3.3730   13.0590 N   0  0  0  0  0  0  0  0  0  0  0  0
    6.6620    3.9110   12.4880 C   0  0  0  0  0  0  0  0  0  0  0  0
    7.1870    4.8650   13.3070 N   0  0  0  0  0  0  0  0  0  0  0  0
    7.0680    3.6460   11.5200 H   0  0  0  0  0  0  0  0  0  0  0  0
    8.3600    5.6500   13.0390 C   0  0  0  0  0  0  0  0  0  0  0  0
    8.9530    5.7420   13.9530 H   0  0  0  0  0  0  0  0  0  0  0  0
    8.0500    6.6440   12.7100 H   0  0  0  0  0  0  0  0  0  0  0  0
    8.9500    5.1520   12.2650 H   0  0  0  0  0  0  0  0  0  0  0  0
    1.1330    9.7620   19.2310 C   0  0  0  0  0  0  0  0  0  0  0  0
   -0.2170   10.0370   19.3380 C   0  0  0  0  0  0  0  0  0  0  0  0
   -0.6080   11.3610   19.1830 C   0  0  0  0  0  0  0  0  0  0  0  0
    0.3290   12.3560   18.8890 C   0  0  0  0  0  0  0  0  0  0  0  0
    1.6700   11.9980   18.7820 C   0  0  0  0  0  0  0  0  0  0  0  0
    2.0840   10.7100   18.9690 N   0  0  0  0  0  0  0  0  0  0  0  0
   -0.9420    9.2540   19.5330 H   0  0  0  0  0  0  0  0  0  0  0  0
    0.0120   13.3840   18.7270 H   0  0  0  0  0  0  0  0  0  0  0  0
   -2.0410   11.6950   19.2740 C   0  0  0  0  0  0  0  0  0  0  0  0
   -2.4410   12.2390   20.2960 O   0  0  0  0  0  0  0  0  0  0  0  0
   -2.8500   11.3730   18.2040 N   0  0  0  0  0  0  0  0  0  0  0  0
   -4.2660   11.6940   18.2300 C   0  0  0  0  0  0  0  0  0  0  0  0
   -4.8090   11.0680   16.9550 C   0  0  0  0  0  0  0  0  0  0  0  0
   -3.6400   11.2170   15.9890 C   0  0  0  0  0  0  0  0  0  0  0  0
   -2.4290   10.9570   16.8710 C   0  0  0  0  0  0  0  0  0  0  0  0
   -4.7370   11.3070   19.1400 H   0  0  0  0  0  0  0  0  0  0  0  0
   -4.3670   12.7860   18.2150 H   0  0  0  0  0  0  0  0  0  0  0  0
   -5.7220   11.5520   16.6040 H   0  0  0  0  0  0  0  0  0  0  0  0
   -5.0190   10.0040   17.1150 H   0  0  0  0  0  0  0  0  0  0  0  0
   -3.6060   12.2430   15.6010 H   0  0  0  0  0  0  0  0  0  0  0  0
   -3.6980   10.5300   15.1380 H   0  0  0  0  0  0  0  0  0  0  0  0
   -1.5440   11.5110   16.5500 H   0  0  0  0  0  0  0  0  0  0  0  0
   -2.1950    9.8900   16.9080 H   0  0  0  0  0  0  0  0  0  0  0  0
    2.6920   13.0770   18.4450 C   0  0  0  0  0  0  0  0  0  0  0  0
    2.1460   14.0970   17.7220 F   0  0  0  0  0  0  0  0  0  0  0  0
    3.7210   12.6010   17.6890 F   0  0  0  0  0  0  0  0  0  0  0  0
    3.2640   13.6570   19.5370 F   0  0  0  0  0  0  0  0  0  0  0  0
  1  2  1  0  0  0  0
  2  3  2  0  0  0  0
  4  1  1  0  0  0  0
  5  6  2  0  0  0  0
  5 10  1  0  0  0  0
  6  7  1  0  0  0  0
  7 12  1  0  0  0  0
  7  8  2  0  0  0  0
  8 13  1  0  0  0  0
  9  8  1  0  0  0  0
  9  1  1  0  0  0  0
 10  9  2  0  0  0  0
 11  6  1  0  0  0  0
 14 10  1  0  0  0  0
 15 16  1  6  0  0  0
 15  5  1  0  0  0  0
 15 17  1  0  0  0  0
 17 20  1  0  0  0  0
 17 19  1  0  0  0  0
 18 17  1  0  0  0  0
 21 15  1  0  0  0  0
 22 21  1  0  0  0  0
 23 22  2  0  0  0  0
 24 23  1  0  0  0  0
 25 24  2  0  0  0  0
 25 26  1  0  0  0  0
 26 22  1  0  0  0  0
 27 25  1  0  0  0  0
 28 26  1  0  0  0  0
 28 29  1  0  0  0  0
 30 28  1  0  0  0  0
 31 28  1  0  0  0  0
 32 33  1  0  0  0  0
 32  2  1  0  0  0  0
 33 38  1  0  0  0  0
 34 40  1  0  0  0  0
 34 33  2  0  0  0  0
 35 34  1  0  0  0  0
 36 35  2  0  0  0  0
 36 37  1  0  0  0  0
 37 32  2  0  0  0  0
 39 35  1  0  0  0  0
 40 41  2  0  0  0  0
 42 43  1  0  0  0  0
 42 40  1  0  0  0  0
 43 47  1  0  0  0  0
 44 50  1  0  0  0  0
 44 43  1  0  0  0  0
 45 46  1  0  0  0  0
 45 44  1  0  0  0  0
 46 54  1  0  0  0  0
 46 42  1  0  0  0  0
 48 43  1  0  0  0  0
 49 44  1  0  0  0  0
 51 45  1  0  0  0  0
 52 45  1  0  0  0  0
 53 46  1  0  0  0  0
 55 36  1  0  0  0  0
 55 58  1  0  0  0  0
 56 55  1  0  0  0  0
 57 55  1  0  0  0  0
M  END
>  <MODEL>
27

>  <REMARK>
 VINA RESULT:    -7.247      4.393      9.884
 INTER + INTRA:         -11.680
 INTER:                 -10.626
 INTRA:                  -1.053
 UNBOUND:                -1.044
  Name = 
  9 active torsions:
  status: ('A' for Active; 'I' for Inactive)
    1  A    between atoms: C_1  and  C_2
    2  A    between atoms: C_2  and  S_3
    3  A    between atoms: C_2  and  C_10
    4  A    between atoms: S_3  and  C_4
    5  A    between atoms: N_8  and  C_9
    6  A    between atoms: C_14  and  N_15
    7  A    between atoms: C_16  and  C_18
    8  A    between atoms: C_20  and  C_21
    9  A    between atoms: C_29  and  C_30
                            x       y       z     vdW  Elec       q    Type
                         _______ _______ _______ _____ _____    ______ ____

>  <TORSDO>
F 9

$$$$
=
 OpenBabel07192307433D

 58 61  0  0  1  0  0  0  0  0999 V2000
    0.6370    9.2540   19.2830 N   0  0  0  0  0  0  0  0  0  0  0  0
    1.7360    9.0820   18.4640 C   0  0  0  0  0  0  0  0  0  0  0  0
    2.2690    9.9170   17.7430 O   0  0  0  0  0  0  0  0  0  0  0  0
    0.3770    8.4270   19.8130 H   0  0  0  0  0  0  0  0  0  0  0  0
   -0.5240   12.4580   20.7500 C   0  0  0  0  0  0  0  0  0  0  0  0
   -1.6410   12.7290   19.9500 C   0  0  0  0  0  0  0  0  0  0  0  0
   -2.0070   11.8620   18.9200 C   0  0  0  0  0  0  0  0  0  0  0  0
   -1.2670   10.7040   18.6730 C   0  0  0  0  0  0  0  0  0  0  0  0
   -0.1520   10.4060   19.4530 C   0  0  0  0  0  0  0  0  0  0  0  0
    0.2170   11.2890   20.4790 C   0  0  0  0  0  0  0  0  0  0  0  0
   -2.2430   13.6210   20.1100 H   0  0  0  0  0  0  0  0  0  0  0  0
   -2.8730   12.0900   18.3040 H   0  0  0  0  0  0  0  0  0  0  0  0
   -1.5900   10.0540   17.8660 H   0  0  0  0  0  0  0  0  0  0  0  0
    1.0940   11.0670   21.0840 H   0  0  0  0  0  0  0  0  0  0  0  0
   -0.0890   13.3760   21.8790 C   0  0  2  0  0  0  0  0  0  0  0  0
    0.8200   12.9260   22.3020 H   0  0  0  0  0  0  0  0  0  0  0  0
   -1.0560   13.4390   23.0670 C   0  0  0  0  0  0  0  0  0  0  0  0
   -1.7240   14.3040   23.0470 H   0  0  0  0  0  0  0  0  0  0  0  0
   -1.6970   12.5500   23.0660 H   0  0  0  0  0  0  0  0  0  0  0  0
   -0.5120   13.4470   24.0180 H   0  0  0  0  0  0  0  0  0  0  0  0
    0.5100   14.9930   21.2810 S   0  0  0  0  0  0  0  0  0  0  0  0
    1.5920   14.6420   19.9850 C   0  0  0  0  0  0  0  0  0  0  0  0
    1.3470   14.6680   18.6960 N   0  0  0  0  0  0  0  0  0  0  0  0
    2.5180   14.3780   18.0340 N   0  0  0  0  0  0  0  0  0  0  0  0
    3.4470   14.1850   18.9430 C   0  0  0  0  0  0  0  0  0  0  0  0
    2.9030   14.3140   20.1850 N   0  0  0  0  0  0  0  0  0  0  0  0
    4.4870   13.9530   18.7520 H   0  0  0  0  0  0  0  0  0  0  0  0
    3.6010   14.1440   21.4300 C   0  0  0  0  0  0  0  0  0  0  0  0
    3.4620   13.1200   21.7880 H   0  0  0  0  0  0  0  0  0  0  0  0
    3.1860   14.8410   22.1620 H   0  0  0  0  0  0  0  0  0  0  0  0
    4.6640   14.3370   21.2690 H   0  0  0  0  0  0  0  0  0  0  0  0
    2.2960    7.6920   18.5280 C   0  0  0  0  0  0  0  0  0  0  0  0
    3.3950    7.3490   17.7640 C   0  0  0  0  0  0  0  0  0  0  0  0
    3.8760    6.0520   17.8940 C   0  0  0  0  0  0  0  0  0  0  0  0
    3.2390    5.1310   18.7310 C   0  0  0  0  0  0  0  0  0  0  0  0
    2.1260    5.5480   19.4560 C   0  0  0  0  0  0  0  0  0  0  0  0
    1.6580    6.8290   19.3760 N   0  0  0  0  0  0  0  0  0  0  0  0
    3.8640    8.0590   17.0920 H   0  0  0  0  0  0  0  0  0  0  0  0
    3.5940    4.1040   18.7950 H   0  0  0  0  0  0  0  0  0  0  0  0
    5.0380    5.6400   17.0860 C   0  0  0  0  0  0  0  0  0  0  0  0
    4.9120    5.6170   15.8680 O   0  0  0  0  0  0  0  0  0  0  0  0
    6.2000    5.3000   17.7480 N   0  0  0  0  0  0  0  0  0  0  0  0
    7.3820    4.9040   17.0030 C   0  0  0  0  0  0  0  0  0  0  0  0
    8.3740    4.4920   18.0780 C   0  0  0  0  0  0  0  0  0  0  0  0
    8.0320    5.4360   19.2240 C   0  0  0  0  0  0  0  0  0  0  0  0
    6.5150    5.5280   19.1530 C   0  0  0  0  0  0  0  0  0  0  0  0
    7.1460    4.1010   16.2970 H   0  0  0  0  0  0  0  0  0  0  0  0
    7.7380    5.7760   16.4410 H   0  0  0  0  0  0  0  0  0  0  0  0
    9.4110    4.5740   17.7480 H   0  0  0  0  0  0  0  0  0  0  0  0
    8.1880    3.4570   18.3880 H   0  0  0  0  0  0  0  0  0  0  0  0
    8.4750    6.4230   19.0380 H   0  0  0  0  0  0  0  0  0  0  0  0
    8.3880    5.0770   20.1950 H   0  0  0  0  0  0  0  0  0  0  0  0
    6.1340    6.4960   19.4870 H   0  0  0  0  0  0  0  0  0  0  0  0
    6.0480    4.7330   19.7390 H   0  0  0  0  0  0  0  0  0  0  0  0
    1.4190    4.5410   20.3550 C   0  0  0  0  0  0  0  0  0  0  0  0
    2.1080    4.3060   21.5090 F   0  0  0  0  0  0  0  0  0  0  0  0
    1.2740    3.3240   19.7600 F   0  0  0  0  0  0  0  0  0  0  0  0
    0.1680    4.9250   20.7380 F   0  0  0  0  0  0  0  0  0  0  0  0
  1  9  1  0  0  0  0
  1  4  1  0  0  0  0
  2 32  1  0  0  0  0
  2  1  1  0  0  0  0
  3  2  2  0  0  0  0
  5 15  1  0  0  0  0
  6 11  1  0  0  0  0
  6  5  2  0  0  0  0
  7  6  1  0  0  0  0
  8  7  2  0  0  0  0
  8  9  1  0  0  0  0
  9 10  2  0  0  0  0
 10  5  1  0  0  0  0
 10 14  1  0  0  0  0
 12  7  1  0  0  0  0
 13  8  1  0  0  0  0
 15 16  1  1  0  0  0
 15 17  1  0  0  0  0
 17 20  1  0  0  0  0
 18 17  1  0  0  0  0
 19 17  1  0  0  0  0
 21 15  1  0  0  0  0
 22 26  1  0  0  0  0
 22 21  1  0  0  0  0
 23 22  2  0  0  0  0
 24 23  1  0  0  0  0
 24 25  2  0  0  0  0
 25 26  1  0  0  0  0
 26 28  1  0  0  0  0
 27 25  1  0  0  0  0
 28 29  1  0  0  0  0
 28 30  1  0  0  0  0
 31 28  1  0  0  0  0
 32 37  1  0  0  0  0
 33 34  1  0  0  0  0
 33 32  2  0  0  0  0
 34 35  2  0  0  0  0
 35 39  1  0  0  0  0
 35 36  1  0  0  0  0
 36 55  1  0  0  0  0
 37 36  2  0  0  0  0
 38 33  1  0  0  0  0
 40 42  1  0  0  0  0
 40 34  1  0  0  0  0
 41 40  2  0  0  0  0
 42 46  1  0  0  0  0
 43 42  1  0  0  0  0
 43 44  1  0  0  0  0
 44 50  1  0  0  0  0
 44 45  1  0  0  0  0
 45 52  1  0  0  0  0
 46 45  1  0  0  0  0
 46 53  1  0  0  0  0
 46 54  1  0  0  0  0
 47 43  1  0  0  0  0
 48 43  1  0  0  0  0
 49 44  1  0  0  0  0
 51 45  1  0  0  0  0
 55 58  1  0  0  0  0
 55 56  1  0  0  0  0
 57 55  1  0  0  0  0
M  END
>  <MODEL>
28

>  <REMARK>
 VINA RESULT:    -7.228      2.737      4.111
 INTER + INTRA:         -11.652
 INTER:                 -10.438
 INTRA:                  -1.214
 UNBOUND:                -1.044
  Name = 
  9 active torsions:
  status: ('A' for Active; 'I' for Inactive)
    1  A    between atoms: C_1  and  C_2
    2  A    between atoms: C_2  and  S_3
    3  A    between atoms: C_2  and  C_10
    4  A    between atoms: S_3  and  C_4
    5  A    between atoms: N_8  and  C_9
    6  A    between atoms: C_14  and  N_15
    7  A    between atoms: C_16  and  C_18
    8  A    between atoms: C_20  and  C_21
    9  A    between atoms: C_29  and  C_30
                            x       y       z     vdW  Elec       q    Type
                         _______ _______ _______ _____ _____    ______ ____

>  <TORSDO>
F 9

$$$$
=
 OpenBabel07192307433D

 58 61  0  0  1  0  0  0  0  0999 V2000
    1.2260    8.0020   19.8350 N   0  0  0  0  0  0  0  0  0  0  0  0
    1.0810    8.8180   20.9400 C   0  0  0  0  0  0  0  0  0  0  0  0
    1.5740    8.6670   22.0520 O   0  0  0  0  0  0  0  0  0  0  0  0
    0.7430    8.3330   19.0040 H   0  0  0  0  0  0  0  0  0  0  0  0
    3.3610    5.3660   18.3330 C   0  0  0  0  0  0  0  0  0  0  0  0
    3.3610    4.4080   19.3540 C   0  0  0  0  0  0  0  0  0  0  0  0
    2.6660    4.6330   20.5420 C   0  0  0  0  0  0  0  0  0  0  0  0
    1.9520    5.8180   20.7310 C   0  0  0  0  0  0  0  0  0  0  0  0
    1.9320    6.7900   19.7330 C   0  0  0  0  0  0  0  0  0  0  0  0
    2.6430    6.5610   18.5460 C   0  0  0  0  0  0  0  0  0  0  0  0
    3.9060    3.4720   19.2450 H   0  0  0  0  0  0  0  0  0  0  0  0
    2.6810    3.8820   21.3270 H   0  0  0  0  0  0  0  0  0  0  0  0
    1.4210    5.9500   21.6680 H   0  0  0  0  0  0  0  0  0  0  0  0
    2.6410    7.3220   17.7670 H   0  0  0  0  0  0  0  0  0  0  0  0
    4.1070    5.1630   17.0250 C   0  0  2  0  0  0  0  0  0  0  0  0
    3.3660    5.3100   16.2270 H   0  0  0  0  0  0  0  0  0  0  0  0
    4.6200    3.7370   16.7910 C   0  0  0  0  0  0  0  0  0  0  0  0
    4.0650    2.9730   17.3420 H   0  0  0  0  0  0  0  0  0  0  0  0
    4.5280    3.4830   15.7290 H   0  0  0  0  0  0  0  0  0  0  0  0
    5.6790    3.6510   17.0550 H   0  0  0  0  0  0  0  0  0  0  0  0
    5.3190    6.4870   16.6920 S   0  0  0  0  0  0  0  0  0  0  0  0
    6.5590    6.2960   17.8750 C   0  0  0  0  0  0  0  0  0  0  0  0
    6.7700    5.2730   18.6680 N   0  0  0  0  0  0  0  0  0  0  0  0
    7.9060    5.5300   19.4020 N   0  0  0  0  0  0  0  0  0  0  0  0
    8.3560    6.7070   19.0310 C   0  0  0  0  0  0  0  0  0  0  0  0
    7.5240    7.2390   18.0920 N   0  0  0  0  0  0  0  0  0  0  0  0
    9.2450    7.1980   19.4080 H   0  0  0  0  0  0  0  0  0  0  0  0
    7.6720    8.5260   17.4700 C   0  0  0  0  0  0  0  0  0  0  0  0
    7.6120    9.3070   18.2330 H   0  0  0  0  0  0  0  0  0  0  0  0
    6.8610    8.6630   16.7510 H   0  0  0  0  0  0  0  0  0  0  0  0
    8.6430    8.5700   16.9730 H   0  0  0  0  0  0  0  0  0  0  0  0
    0.2210   10.0160   20.6670 C   0  0  0  0  0  0  0  0  0  0  0  0
    0.2070   11.0790   21.5510 C   0  0  0  0  0  0  0  0  0  0  0  0
   -0.5920   12.1660   21.2210 C   0  0  0  0  0  0  0  0  0  0  0  0
   -1.3790   12.1540   20.0660 C   0  0  0  0  0  0  0  0  0  0  0  0
   -1.3230   11.0400   19.2340 C   0  0  0  0  0  0  0  0  0  0  0  0
   -0.5140    9.9760   19.5150 N   0  0  0  0  0  0  0  0  0  0  0  0
    0.7950   11.0660   22.4630 H   0  0  0  0  0  0  0  0  0  0  0  0
   -2.0360   12.9910   19.8360 H   0  0  0  0  0  0  0  0  0  0  0  0
   -0.6470   13.3140   22.1450 C   0  0  0  0  0  0  0  0  0  0  0  0
    0.2410   14.1540   22.0710 O   0  0  0  0  0  0  0  0  0  0  0  0
   -1.6940   13.3750   23.0420 N   0  0  0  0  0  0  0  0  0  0  0  0
   -1.8090   14.4920   23.9630 C   0  0  0  0  0  0  0  0  0  0  0  0
   -2.9890   14.1200   24.8460 C   0  0  0  0  0  0  0  0  0  0  0  0
   -3.8940   13.3560   23.8870 C   0  0  0  0  0  0  0  0  0  0  0  0
   -2.9080   12.5670   23.0390 C   0  0  0  0  0  0  0  0  0  0  0  0
   -0.8770   14.6350   24.5190 H   0  0  0  0  0  0  0  0  0  0  0  0
   -2.0160   15.3950   23.3780 H   0  0  0  0  0  0  0  0  0  0  0  0
   -3.4720   14.9910   25.2920 H   0  0  0  0  0  0  0  0  0  0  0  0
   -2.6630   13.4520   25.6520 H   0  0  0  0  0  0  0  0  0  0  0  0
   -4.4470   14.0620   23.2560 H   0  0  0  0  0  0  0  0  0  0  0  0
   -4.6170   12.7140   24.4000 H   0  0  0  0  0  0  0  0  0  0  0  0
   -3.2640   12.4010   22.0200 H   0  0  0  0  0  0  0  0  0  0  0  0
   -2.6760   11.6050   23.5030 H   0  0  0  0  0  0  0  0  0  0  0  0
   -2.1920   11.0170   17.9820 C   0  0  0  0  0  0  0  0  0  0  0  0
   -2.1910    9.7950   17.3750 F   0  0  0  0  0  0  0  0  0  0  0  0
   -1.7640   11.8980   17.0350 F   0  0  0  0  0  0  0  0  0  0  0  0
   -3.5010   11.3190   18.2130 F   0  0  0  0  0  0  0  0  0  0  0  0
  1  2  1  0  0  0  0
  2  3  2  0  0  0  0
  4  1  1  0  0  0  0
  5 10  2  0  0  0  0
  5  6  1  0  0  0  0
  6  7  2  0  0  0  0
  7  8  1  0  0  0  0
  7 12  1  0  0  0  0
  8 13  1  0  0  0  0
  9  1  1  0  0  0  0
  9  8  2  0  0  0  0
 10  9  1  0  0  0  0
 11  6  1  0  0  0  0
 14 10  1  0  0  0  0
 15 16  1  6  0  0  0
 15  5  1  0  0  0  0
 17 15  1  0  0  0  0
 17 20  1  0  0  0  0
 17 18  1  0  0  0  0
 19 17  1  0  0  0  0
 21 15  1  0  0  0  0
 21 22  1  0  0  0  0
 22 26  1  0  0  0  0
 22 23  2  0  0  0  0
 23 24  1  0  0  0  0
 25 24  2  0  0  0  0
 25 27  1  0  0  0  0
 26 25  1  0  0  0  0
 28 26  1  0  0  0  0
 28 29  1  0  0  0  0
 30 28  1  0  0  0  0
 31 28  1  0  0  0  0
 32  2  1  0  0  0  0
 32 33  1  0  0  0  0
 33 38  1  0  0  0  0
 34 33  2  0  0  0  0
 34 40  1  0  0  0  0
 35 34  1  0  0  0  0
 36 37  1  0  0  0  0
 36 35  2  0  0  0  0
 37 32  2  0  0  0  0
 39 35  1  0  0  0  0
 40 42  1  0  0  0  0
 41 40  2  0  0  0  0
 42 43  1  0  0  0  0
 43 47  1  0  0  0  0
 43 44  1  0  0  0  0
 44 49  1  0  0  0  0
 44 50  1  0  0  0  0
 45 52  1  0  0  0  0
 45 44  1  0  0  0  0
 46 42  1  0  0  0  0
 46 54  1  0  0  0  0
 46 45  1  0  0  0  0
 48 43  1  0  0  0  0
 51 45  1  0  0  0  0
 53 46  1  0  0  0  0
 55 58  1  0  0  0  0
 55 36  1  0  0  0  0
 56 55  1  0  0  0  0
 57 55  1  0  0  0  0
M  END
>  <MODEL>
29

>  <REMARK>
 VINA RESULT:    -7.227      4.146     10.048
 INTER + INTRA:         -11.652
 INTER:                 -10.937
 INTRA:                  -0.714
 UNBOUND:                -1.044
  Name = 
  9 active torsions:
  status: ('A' for Active; 'I' for Inactive)
    1  A    between atoms: C_1  and  C_2
    2  A    between atoms: C_2  and  S_3
    3  A    between atoms: C_2  and  C_10
    4  A    between atoms: S_3  and  C_4
    5  A    between atoms: N_8  and  C_9
    6  A    between atoms: C_14  and  N_15
    7  A    between atoms: C_16  and  C_18
    8  A    between atoms: C_20  and  C_21
    9  A    between atoms: C_29  and  C_30
                            x       y       z     vdW  Elec       q    Type
                         _______ _______ _______ _____ _____    ______ ____

>  <TORSDO>
F 9

$$$$
=
 OpenBabel07192307433D

 58 61  0  0  1  0  0  0  0  0999 V2000
    1.5960    8.2710   20.0700 N   0  0  0  0  0  0  0  0  0  0  0  0
    1.3300    9.1390   19.0290 C   0  0  0  0  0  0  0  0  0  0  0  0
    1.3370    8.8920   17.8290 O   0  0  0  0  0  0  0  0  0  0  0  0
    1.5110    8.6870   20.9940 H   0  0  0  0  0  0  0  0  0  0  0  0
    3.2350    5.2060   18.7740 C   0  0  0  0  0  0  0  0  0  0  0  0
    2.7950    4.2550   19.7020 C   0  0  0  0  0  0  0  0  0  0  0  0
    1.9660    4.6240   20.7620 C   0  0  0  0  0  0  0  0  0  0  0  0
    1.5560    5.9500   20.9110 C   0  0  0  0  0  0  0  0  0  0  0  0
    1.9760    6.9190   20.0030 C   0  0  0  0  0  0  0  0  0  0  0  0
    2.8190    6.5420   18.9460 C   0  0  0  0  0  0  0  0  0  0  0  0
    3.0930    3.2110   19.6210 H   0  0  0  0  0  0  0  0  0  0  0  0
    1.6380    3.8740   21.4770 H   0  0  0  0  0  0  0  0  0  0  0  0
    0.9060    6.1920   21.7460 H   0  0  0  0  0  0  0  0  0  0  0  0
    3.1600    7.2980   18.2410 H   0  0  0  0  0  0  0  0  0  0  0  0
    4.1410    4.8480   17.6080 C   0  0  2  0  0  0  0  0  0  0  0  0
    4.2560    5.7680   17.0190 H   0  0  0  0  0  0  0  0  0  0  0  0
    3.5440    3.8470   16.6120 C   0  0  0  0  0  0  0  0  0  0  0  0
    3.5950    4.1770   15.5710 H   0  0  0  0  0  0  0  0  0  0  0  0
    4.0950    2.9010   16.6660 H   0  0  0  0  0  0  0  0  0  0  0  0
    2.4980    3.6280   16.8520 H   0  0  0  0  0  0  0  0  0  0  0  0
    5.8540    4.4930   18.1300 S   0  0  0  0  0  0  0  0  0  0  0  0
    6.7190    5.9720   17.9350 C   0  0  0  0  0  0  0  0  0  0  0  0
    6.5170    6.9170   17.0470 N   0  0  0  0  0  0  0  0  0  0  0  0
    7.4030    7.9390   17.3040 N   0  0  0  0  0  0  0  0  0  0  0  0
    8.1200    7.5860   18.3460 C   0  0  0  0  0  0  0  0  0  0  0  0
    7.7430    6.3430   18.7600 N   0  0  0  0  0  0  0  0  0  0  0  0
    8.8990    8.1750   18.8140 H   0  0  0  0  0  0  0  0  0  0  0  0
    8.3210    5.6100   19.8520 C   0  0  0  0  0  0  0  0  0  0  0  0
    8.4070    6.2650   20.7240 H   0  0  0  0  0  0  0  0  0  0  0  0
    9.3160    5.2690   19.5590 H   0  0  0  0  0  0  0  0  0  0  0  0
    7.6750    4.7620   20.0900 H   0  0  0  0  0  0  0  0  0  0  0  0
    0.9870   10.5220   19.5000 C   0  0  0  0  0  0  0  0  0  0  0  0
    0.0220   10.7060   20.4720 C   0  0  0  0  0  0  0  0  0  0  0  0
   -0.2250   12.0110   20.8780 C   0  0  0  0  0  0  0  0  0  0  0  0
    0.4490   13.0860   20.2900 C   0  0  0  0  0  0  0  0  0  0  0  0
    1.3960   12.8200   19.3050 C   0  0  0  0  0  0  0  0  0  0  0  0
    1.6860   11.5430   18.9170 N   0  0  0  0  0  0  0  0  0  0  0  0
   -0.5200    9.8700   20.8990 H   0  0  0  0  0  0  0  0  0  0  0  0
    0.2200   14.1090   20.5830 H   0  0  0  0  0  0  0  0  0  0  0  0
   -1.2580   12.2540   21.9030 C   0  0  0  0  0  0  0  0  0  0  0  0
   -0.9060   12.2970   23.0750 O   0  0  0  0  0  0  0  0  0  0  0  0
   -2.5620   12.4140   21.4820 N   0  0  0  0  0  0  0  0  0  0  0  0
   -3.6180   12.6730   22.4440 C   0  0  0  0  0  0  0  0  0  0  0  0
   -4.8890   12.6520   21.6100 C   0  0  0  0  0  0  0  0  0  0  0  0
   -4.4200   13.2190   20.2760 C   0  0  0  0  0  0  0  0  0  0  0  0
   -3.0310   12.6200   20.1160 C   0  0  0  0  0  0  0  0  0  0  0  0
   -3.6090   11.9250   23.2430 H   0  0  0  0  0  0  0  0  0  0  0  0
   -3.4430   13.6630   22.8830 H   0  0  0  0  0  0  0  0  0  0  0  0
   -5.6990   13.2280   22.0620 H   0  0  0  0  0  0  0  0  0  0  0  0
   -5.2320   11.6200   21.4690 H   0  0  0  0  0  0  0  0  0  0  0  0
   -4.3490   14.3130   20.3400 H   0  0  0  0  0  0  0  0  0  0  0  0
   -5.0860   12.9660   19.4450 H   0  0  0  0  0  0  0  0  0  0  0  0
   -2.3500   13.2710   19.5630 H   0  0  0  0  0  0  0  0  0  0  0  0
   -3.0810   11.6450   19.6250 H   0  0  0  0  0  0  0  0  0  0  0  0
    2.1190   13.9900   18.6500 C   0  0  0  0  0  0  0  0  0  0  0  0
    2.5320   13.6980   17.3830 F   0  0  0  0  0  0  0  0  0  0  0  0
    3.2450   14.3520   19.3290 F   0  0  0  0  0  0  0  0  0  0  0  0
    1.3630   15.1190   18.5460 F   0  0  0  0  0  0  0  0  0  0  0  0
  1  4  1  0  0  0  0
  2 32  1  0  0  0  0
  2  1  1  0  0  0  0
  3  2  2  0  0  0  0
  5 10  2  0  0  0  0
  5  6  1  0  0  0  0
  6  7  2  0  0  0  0
  7  8  1  0  0  0  0
  7 12  1  0  0  0  0
  8 13  1  0  0  0  0
  9  1  1  0  0  0  0
  9  8  2  0  0  0  0
 10  9  1  0  0  0  0
 11  6  1  0  0  0  0
 14 10  1  0  0  0  0
 15 16  1  6  0  0  0
 15 21  1  0  0  0  0
 15  5  1  0  0  0  0
 17 19  1  0  0  0  0
 17 20  1  0  0  0  0
 17 15  1  0  0  0  0
 18 17  1  0  0  0  0
 22 21  1  0  0  0  0
 22 26  1  0  0  0  0
 23 24  1  0  0  0  0
 23 22  2  0  0  0  0
 24 25  2  0  0  0  0
 25 26  1  0  0  0  0
 25 27  1  0  0  0  0
 26 28  1  0  0  0  0
 28 31  1  0  0  0  0
 28 29  1  0  0  0  0
 30 28  1  0  0  0  0
 32 33  1  0  0  0  0
 33 34  2  0  0  0  0
 33 38  1  0  0  0  0
 34 40  1  0  0  0  0
 35 39  1  0  0  0  0
 35 34  1  0  0  0  0
 36 35  2  0  0  0  0
 37 36  1  0  0  0  0
 37 32  2  0  0  0  0
 40 41  2  0  0  0  0
 42 40  1  0  0  0  0
 42 43  1  0  0  0  0
 43 48  1  0  0  0  0
 43 47  1  0  0  0  0
 44 49  1  0  0  0  0
 44 43  1  0  0  0  0
 45 51  1  0  0  0  0
 45 44  1  0  0  0  0
 46 45  1  0  0  0  0
 46 42  1  0  0  0  0
 50 44  1  0  0  0  0
 52 45  1  0  0  0  0
 53 46  1  0  0  0  0
 54 46  1  0  0  0  0
 55 36  1  0  0  0  0
 55 57  1  0  0  0  0
 56 55  1  0  0  0  0
 58 55  1  0  0  0  0
M  END
>  <MODEL>
30

>  <REMARK>
 VINA RESULT:    -7.213      4.770     10.080
 INTER + INTRA:         -11.630
 INTER:                 -10.769
 INTRA:                  -0.861
 UNBOUND:                -1.044
  Name = 
  9 active torsions:
  status: ('A' for Active; 'I' for Inactive)
    1  A    between atoms: C_1  and  C_2
    2  A    between atoms: C_2  and  S_3
    3  A    between atoms: C_2  and  C_10
    4  A    between atoms: S_3  and  C_4
    5  A    between atoms: N_8  and  C_9
    6  A    between atoms: C_14  and  N_15
    7  A    between atoms: C_16  and  C_18
    8  A    between atoms: C_20  and  C_21
    9  A    between atoms: C_29  and  C_30
                            x       y       z     vdW  Elec       q    Type
                         _______ _______ _______ _____ _____    ______ ____

>  <TORSDO>
F 9

$$$$
=
 OpenBabel07192307433D

 58 61  0  0  1  0  0  0  0  0999 V2000
    2.1110    7.8310   19.2600 N   0  0  0  0  0  0  0  0  0  0  0  0
    2.0530    6.6220   19.9260 C   0  0  0  0  0  0  0  0  0  0  0  0
    1.2300    6.2680   20.7620 O   0  0  0  0  0  0  0  0  0  0  0  0
    2.8710    7.9020   18.5880 H   0  0  0  0  0  0  0  0  0  0  0  0
    0.0670   10.4090   20.9730 C   0  0  0  0  0  0  0  0  0  0  0  0
   -0.4210   11.1340   19.8780 C   0  0  0  0  0  0  0  0  0  0  0  0
   -0.0690   10.7800   18.5750 C   0  0  0  0  0  0  0  0  0  0  0  0
    0.7730    9.6910   18.3410 C   0  0  0  0  0  0  0  0  0  0  0  0
    1.2730    8.9500   19.4090 C   0  0  0  0  0  0  0  0  0  0  0  0
    0.9240    9.3190   20.7170 C   0  0  0  0  0  0  0  0  0  0  0  0
   -1.0790   11.9890   20.0200 H   0  0  0  0  0  0  0  0  0  0  0  0
   -0.4510   11.3570   17.7370 H   0  0  0  0  0  0  0  0  0  0  0  0
    1.0160    9.4470   17.3120 H   0  0  0  0  0  0  0  0  0  0  0  0
    1.3210    8.7510   21.5560 H   0  0  0  0  0  0  0  0  0  0  0  0
   -0.2890   10.7630   22.4070 C   0  0  2  0  0  0  0  0  0  0  0  0
    0.4270   11.5380   22.7140 H   0  0  0  0  0  0  0  0  0  0  0  0
   -0.0680    9.6350   23.4220 C   0  0  0  0  0  0  0  0  0  0  0  0
    0.9340    9.6250   23.8590 H   0  0  0  0  0  0  0  0  0  0  0  0
   -0.7700    9.7500   24.2560 H   0  0  0  0  0  0  0  0  0  0  0  0
   -0.2560    8.6550   22.9700 H   0  0  0  0  0  0  0  0  0  0  0  0
   -1.8910   11.6260   22.5430 S   0  0  0  0  0  0  0  0  0  0  0  0
   -1.5580   13.2860   22.2160 C   0  0  0  0  0  0  0  0  0  0  0  0
   -0.5440   14.0060   22.6320 N   0  0  0  0  0  0  0  0  0  0  0  0
   -0.6540   15.2600   22.0750 N   0  0  0  0  0  0  0  0  0  0  0  0
   -1.7370   15.2670   21.3320 C   0  0  0  0  0  0  0  0  0  0  0  0
   -2.3530   14.0540   21.4120 N   0  0  0  0  0  0  0  0  0  0  0  0
   -2.1020   16.1000   20.7440 H   0  0  0  0  0  0  0  0  0  0  0  0
   -3.5810   13.6910   20.7590 C   0  0  0  0  0  0  0  0  0  0  0  0
   -4.2360   13.1860   21.4740 H   0  0  0  0  0  0  0  0  0  0  0  0
   -3.3530   13.0090   19.9370 H   0  0  0  0  0  0  0  0  0  0  0  0
   -4.0670   14.5960   20.3890 H   0  0  0  0  0  0  0  0  0  0  0  0
    3.1470    5.6810   19.5170 C   0  0  0  0  0  0  0  0  0  0  0  0
    4.1570    6.1110   18.6780 C   0  0  0  0  0  0  0  0  0  0  0  0
    5.1520    5.1940   18.3630 C   0  0  0  0  0  0  0  0  0  0  0  0
    5.0970    3.8820   18.8430 C   0  0  0  0  0  0  0  0  0  0  0  0
    4.0380    3.5200   19.6710 C   0  0  0  0  0  0  0  0  0  0  0  0
    3.0700    4.4140   20.0280 N   0  0  0  0  0  0  0  0  0  0  0  0
    4.1750    7.1210   18.2820 H   0  0  0  0  0  0  0  0  0  0  0  0
    5.8560    3.1570   18.5570 H   0  0  0  0  0  0  0  0  0  0  0  0
    6.2400    5.6080   17.4580 C   0  0  0  0  0  0  0  0  0  0  0  0
    7.1080    6.3470   17.9040 O   0  0  0  0  0  0  0  0  0  0  0  0
    6.2160    5.1420   16.1600 N   0  0  0  0  0  0  0  0  0  0  0  0
    7.2710    5.5020   15.2290 C   0  0  0  0  0  0  0  0  0  0  0  0
    6.8120    4.9120   13.9050 C   0  0  0  0  0  0  0  0  0  0  0  0
    6.0820    3.6480   14.3420 C   0  0  0  0  0  0  0  0  0  0  0  0
    5.3750    4.0820   15.6170 C   0  0  0  0  0  0  0  0  0  0  0  0
    7.4080    6.5880   15.1970 H   0  0  0  0  0  0  0  0  0  0  0  0
    8.2020    5.0370   15.5740 H   0  0  0  0  0  0  0  0  0  0  0  0
    7.6410    4.7160   13.2220 H   0  0  0  0  0  0  0  0  0  0  0  0
    6.1070    5.5910   13.4120 H   0  0  0  0  0  0  0  0  0  0  0  0
    6.8090    2.8570   14.5690 H   0  0  0  0  0  0  0  0  0  0  0  0
    5.3890    3.2700   13.5830 H   0  0  0  0  0  0  0  0  0  0  0  0
    5.2600    3.2670   16.3360 H   0  0  0  0  0  0  0  0  0  0  0  0
    4.3940    4.5080   15.3930 H   0  0  0  0  0  0  0  0  0  0  0  0
    3.9670    2.0860   20.1830 C   0  0  0  0  0  0  0  0  0  0  0  0
    5.1850    1.4730   20.1720 F   0  0  0  0  0  0  0  0  0  0  0  0
    3.1540    1.3020   19.4200 F   0  0  0  0  0  0  0  0  0  0  0  0
    3.5050    1.9780   21.4610 F   0  0  0  0  0  0  0  0  0  0  0  0
  1  9  1  0  0  0  0
  1  2  1  0  0  0  0
  2  3  2  0  0  0  0
  4  1  1  0  0  0  0
  5 15  1  0  0  0  0
  6 11  1  0  0  0  0
  6  5  2  0  0  0  0
  7  6  1  0  0  0  0
  8  7  2  0  0  0  0
  8  9  1  0  0  0  0
  9 10  2  0  0  0  0
 10  5  1  0  0  0  0
 10 14  1  0  0  0  0
 12  7  1  0  0  0  0
 13  8  1  0  0  0  0
 15 21  1  0  0  0  0
 15 16  1  1  0  0  0
 15 17  1  0  0  0  0
 17 18  1  0  0  0  0
 17 19  1  0  0  0  0
 20 17  1  0  0  0  0
 22 21  1  0  0  0  0
 22 23  2  0  0  0  0
 24 23  1  0  0  0  0
 25 26  1  0  0  0  0
 25 24  2  0  0  0  0
 26 22  1  0  0  0  0
 27 25  1  0  0  0  0
 28 26  1  0  0  0  0
 28 29  1  0  0  0  0
 30 28  1  0  0  0  0
 31 28  1  0  0  0  0
 32  2  1  0  0  0  0
 32 37  1  0  0  0  0
 33 32  2  0  0  0  0
 34 33  1  0  0  0  0
 34 35  2  0  0  0  0
 35 36  1  0  0  0  0
 36 37  2  0  0  0  0
 36 55  1  0  0  0  0
 38 33  1  0  0  0  0
 39 35  1  0  0  0  0
 40 41  2  0  0  0  0
 40 34  1  0  0  0  0
 42 40  1  0  0  0  0
 43 48  1  0  0  0  0
 43 42  1  0  0  0  0
 44 45  1  0  0  0  0
 44 43  1  0  0  0  0
 45 51  1  0  0  0  0
 45 46  1  0  0  0  0
 46 42  1  0  0  0  0
 46 53  1  0  0  0  0
 47 43  1  0  0  0  0
 49 44  1  0  0  0  0
 50 44  1  0  0  0  0
 52 45  1  0  0  0  0
 54 46  1  0  0  0  0
 55 58  1  0  0  0  0
 56 55  1  0  0  0  0
 57 55  1  0  0  0  0
M  END
>  <MODEL>
31

>  <REMARK>
 VINA RESULT:    -7.074      2.511      3.490
 INTER + INTRA:         -11.427
 INTER:                 -10.853
 INTRA:                  -0.573
 UNBOUND:                -1.044
  Name = 
  9 active torsions:
  status: ('A' for Active; 'I' for Inactive)
    1  A    between atoms: C_1  and  C_2
    2  A    between atoms: C_2  and  S_3
    3  A    between atoms: C_2  and  C_10
    4  A    between atoms: S_3  and  C_4
    5  A    between atoms: N_8  and  C_9
    6  A    between atoms: C_14  and  N_15
    7  A    between atoms: C_16  and  C_18
    8  A    between atoms: C_20  and  C_21
    9  A    between atoms: C_29  and  C_30
                            x       y       z     vdW  Elec       q    Type
                         _______ _______ _______ _____ _____    ______ ____

>  <TORSDO>
F 9

$$$$
=
 OpenBabel07192307433D

 58 61  0  0  1  0  0  0  0  0999 V2000
    2.1130    7.9010   18.1670 N   0  0  0  0  0  0  0  0  0  0  0  0
    1.6290    8.4940   19.3170 C   0  0  0  0  0  0  0  0  0  0  0  0
    1.6140    8.0280   20.4500 O   0  0  0  0  0  0  0  0  0  0  0  0
    2.0450    8.4820   17.3360 H   0  0  0  0  0  0  0  0  0  0  0  0
    4.6790    5.2940   17.5460 C   0  0  0  0  0  0  0  0  0  0  0  0
    3.9070    4.1300   17.6450 C   0  0  0  0  0  0  0  0  0  0  0  0
    2.5420    4.2020   17.9260 C   0  0  0  0  0  0  0  0  0  0  0  0
    1.9210    5.4400   18.1090 C   0  0  0  0  0  0  0  0  0  0  0  0
    2.6630    6.6150   18.0150 C   0  0  0  0  0  0  0  0  0  0  0  0
    4.0370    6.5340   17.7430 C   0  0  0  0  0  0  0  0  0  0  0  0
    4.3540    3.1470   17.5100 H   0  0  0  0  0  0  0  0  0  0  0  0
    1.9580    3.2890   18.0060 H   0  0  0  0  0  0  0  0  0  0  0  0
    0.8570    5.4500   18.3200 H   0  0  0  0  0  0  0  0  0  0  0  0
    4.6230    7.4490   17.6800 H   0  0  0  0  0  0  0  0  0  0  0  0
    6.1670    5.2600   17.2440 C   0  0  2  0  0  0  0  0  0  0  0  0
    6.4060    4.2130   17.0130 H   0  0  0  0  0  0  0  0  0  0  0  0
    7.0740    5.5890   18.4360 C   0  0  0  0  0  0  0  0  0  0  0  0
    6.6640    5.2780   19.4010 H   0  0  0  0  0  0  0  0  0  0  0  0
    8.0320    5.0690   18.3230 H   0  0  0  0  0  0  0  0  0  0  0  0
    7.2890    6.6620   18.4840 H   0  0  0  0  0  0  0  0  0  0  0  0
    6.5910    6.1170   15.6890 S   0  0  0  0  0  0  0  0  0  0  0  0
    6.3920    4.9450   14.4400 C   0  0  0  0  0  0  0  0  0  0  0  0
    5.4690    4.0180   14.3390 N   0  0  0  0  0  0  0  0  0  0  0  0
    5.6630    3.3520   13.1490 N   0  0  0  0  0  0  0  0  0  0  0  0
    6.7010    3.8970   12.5580 C   0  0  0  0  0  0  0  0  0  0  0  0
    7.2100    4.8850   13.3460 N   0  0  0  0  0  0  0  0  0  0  0  0
    7.1090    3.6130   11.5950 H   0  0  0  0  0  0  0  0  0  0  0  0
    8.3640    5.6870   13.0490 C   0  0  0  0  0  0  0  0  0  0  0  0
    8.2230    6.1840   12.0840 H   0  0  0  0  0  0  0  0  0  0  0  0
    9.2390    5.0360   12.9930 H   0  0  0  0  0  0  0  0  0  0  0  0
    8.4870    6.4360   13.8340 H   0  0  0  0  0  0  0  0  0  0  0  0
    1.0880    9.8730   19.0750 C   0  0  0  0  0  0  0  0  0  0  0  0
   -0.2740   10.0750   18.9620 C   0  0  0  0  0  0  0  0  0  0  0  0
   -0.7050   11.3810   18.7650 C   0  0  0  0  0  0  0  0  0  0  0  0
    0.2110   12.4290   18.6430 C   0  0  0  0  0  0  0  0  0  0  0  0
    1.5690   12.1420   18.7520 C   0  0  0  0  0  0  0  0  0  0  0  0
    2.0170   10.8730   18.9860 N   0  0  0  0  0  0  0  0  0  0  0  0
   -0.9780    9.2520   19.0250 H   0  0  0  0  0  0  0  0  0  0  0  0
   -0.1310   13.4430   18.4450 H   0  0  0  0  0  0  0  0  0  0  0  0
   -2.1510   11.6390   18.6240 C   0  0  0  0  0  0  0  0  0  0  0  0
   -2.6940   11.3090   17.5770 O   0  0  0  0  0  0  0  0  0  0  0  0
   -2.8070   12.2400   19.6780 N   0  0  0  0  0  0  0  0  0  0  0  0
   -4.2330   12.5020   19.6030 C   0  0  0  0  0  0  0  0  0  0  0  0
   -4.5330   13.2750   20.8770 C   0  0  0  0  0  0  0  0  0  0  0  0
   -3.5530   12.6660   21.8730 C   0  0  0  0  0  0  0  0  0  0  0  0
   -2.3060   12.4400   21.0330 C   0  0  0  0  0  0  0  0  0  0  0  0
   -4.4800   13.0540   18.6900 H   0  0  0  0  0  0  0  0  0  0  0  0
   -4.7560   11.5380   19.5870 H   0  0  0  0  0  0  0  0  0  0  0  0
   -5.5750   13.1850   21.1890 H   0  0  0  0  0  0  0  0  0  0  0  0
   -4.3020   14.3380   20.7390 H   0  0  0  0  0  0  0  0  0  0  0  0
   -3.9390   11.7050   22.2350 H   0  0  0  0  0  0  0  0  0  0  0  0
   -3.3680   13.3100   22.7390 H   0  0  0  0  0  0  0  0  0  0  0  0
   -1.7220   11.5790   21.3650 H   0  0  0  0  0  0  0  0  0  0  0  0
   -1.6700   13.3290   21.0310 H   0  0  0  0  0  0  0  0  0  0  0  0
    2.5720   13.2800   18.6020 C   0  0  0  0  0  0  0  0  0  0  0  0
    3.6070   12.9500   17.7770 F   0  0  0  0  0  0  0  0  0  0  0  0
    3.1440   13.6280   19.7890 F   0  0  0  0  0  0  0  0  0  0  0  0
    2.0370   14.4240   18.0910 F   0  0  0  0  0  0  0  0  0  0  0  0
  1  2  1  0  0  0  0
  2  3  2  0  0  0  0
  4  1  1  0  0  0  0
  5  6  2  0  0  0  0
  5 10  1  0  0  0  0
  6  7  1  0  0  0  0
  7 12  1  0  0  0  0
  7  8  2  0  0  0  0
  8 13  1  0  0  0  0
  9  8  1  0  0  0  0
  9  1  1  0  0  0  0
 10  9  2  0  0  0  0
 11  6  1  0  0  0  0
 14 10  1  0  0  0  0
 15 16  1  6  0  0  0
 15  5  1  0  0  0  0
 15 17  1  0  0  0  0
 17 20  1  0  0  0  0
 17 18  1  0  0  0  0
 19 17  1  0  0  0  0
 21 15  1  0  0  0  0
 22 21  1  0  0  0  0
 23 22  2  0  0  0  0
 24 23  1  0  0  0  0
 25 24  2  0  0  0  0
 25 26  1  0  0  0  0
 26 22  1  0  0  0  0
 27 25  1  0  0  0  0
 28 26  1  0  0  0  0
 28 31  1  0  0  0  0
 29 28  1  0  0  0  0
 30 28  1  0  0  0  0
 32  2  1  0  0  0  0
 33 38  1  0  0  0  0
 33 32  2  0  0  0  0
 34 33  1  0  0  0  0
 35 36  1  0  0  0  0
 35 34  2  0  0  0  0
 36 37  2  0  0  0  0
 37 32  1  0  0  0  0
 39 35  1  0  0  0  0
 40 34  1  0  0  0  0
 40 42  1  0  0  0  0
 41 40  2  0  0  0  0
 42 46  1  0  0  0  0
 43 42  1  0  0  0  0
 43 44  1  0  0  0  0
 44 49  1  0  0  0  0
 44 45  1  0  0  0  0
 45 51  1  0  0  0  0
 45 52  1  0  0  0  0
 46 53  1  0  0  0  0
 46 45  1  0  0  0  0
 47 43  1  0  0  0  0
 48 43  1  0  0  0  0
 50 44  1  0  0  0  0
 54 46  1  0  0  0  0
 55 36  1  0  0  0  0
 55 57  1  0  0  0  0
 56 55  1  0  0  0  0
 58 55  1  0  0  0  0
M  END
>  <MODEL>
32

>  <REMARK>
 VINA RESULT:    -6.978      4.549     10.185
 INTER + INTRA:         -11.285
 INTER:                 -10.241
 INTRA:                  -1.044
 UNBOUND:                -1.044
  Name = 
  9 active torsions:
  status: ('A' for Active; 'I' for Inactive)
    1  A    between atoms: C_1  and  C_2
    2  A    between atoms: C_2  and  S_3
    3  A    between atoms: C_2  and  C_10
    4  A    between atoms: S_3  and  C_4
    5  A    between atoms: N_8  and  C_9
    6  A    between atoms: C_14  and  N_15
    7  A    between atoms: C_16  and  C_18
    8  A    between atoms: C_20  and  C_21
    9  A    between atoms: C_29  and  C_30
                            x       y       z     vdW  Elec       q    Type
                         _______ _______ _______ _____ _____    ______ ____

>  <TORSDO>
F 9

$$$$
=
 OpenBabel07192307433D

 58 61  0  0  1  0  0  0  0  0999 V2000
    1.1850    8.3710   20.3430 N   0  0  0  0  0  0  0  0  0  0  0  0
    1.1870    9.1380   21.4910 C   0  0  0  0  0  0  0  0  0  0  0  0
    1.6590    8.8470   22.5840 O   0  0  0  0  0  0  0  0  0  0  0  0
    0.7550    8.8220   19.5390 H   0  0  0  0  0  0  0  0  0  0  0  0
    2.8070    5.4980   18.6470 C   0  0  0  0  0  0  0  0  0  0  0  0
    2.6920    4.5080   19.6310 C   0  0  0  0  0  0  0  0  0  0  0  0
    2.0890    4.7880   20.8570 C   0  0  0  0  0  0  0  0  0  0  0  0
    1.5840    6.0630   21.1230 C   0  0  0  0  0  0  0  0  0  0  0  0
    1.6820    7.0680   20.1630 C   0  0  0  0  0  0  0  0  0  0  0  0
    2.3000    6.7810   18.9370 C   0  0  0  0  0  0  0  0  0  0  0  0
    3.0740    3.5020   19.4630 H   0  0  0  0  0  0  0  0  0  0  0  0
    2.0140    4.0100   21.6130 H   0  0  0  0  0  0  0  0  0  0  0  0
    1.1180    6.2360   22.0870 H   0  0  0  0  0  0  0  0  0  0  0  0
    2.3900    7.5660   18.1880 H   0  0  0  0  0  0  0  0  0  0  0  0
    3.4580    5.2350   17.3000 C   0  0  2  0  0  0  0  0  0  0  0  0
    2.6980    5.4760   16.5440 H   0  0  0  0  0  0  0  0  0  0  0  0
    3.7980    3.7660   17.0240 C   0  0  0  0  0  0  0  0  0  0  0  0
    4.8700    3.5500   17.0440 H   0  0  0  0  0  0  0  0  0  0  0  0
    3.3380    3.1320   17.7910 H   0  0  0  0  0  0  0  0  0  0  0  0
    3.4010    3.4450   16.0550 H   0  0  0  0  0  0  0  0  0  0  0  0
    4.7900    6.4240   16.9180 S   0  0  0  0  0  0  0  0  0  0  0  0
    6.2170    5.7760   17.6370 C   0  0  0  0  0  0  0  0  0  0  0  0
    6.6420    5.9240   18.8690 N   0  0  0  0  0  0  0  0  0  0  0  0
    7.7910    5.1800   19.0160 N   0  0  0  0  0  0  0  0  0  0  0  0
    8.0330    4.5970   17.8650 C   0  0  0  0  0  0  0  0  0  0  0  0
    7.0830    4.9650   16.9590 N   0  0  0  0  0  0  0  0  0  0  0  0
    8.8570    3.9290   17.6480 H   0  0  0  0  0  0  0  0  0  0  0  0
    7.0300    4.5530   15.5830 C   0  0  0  0  0  0  0  0  0  0  0  0
    7.4040    3.5290   15.4950 H   0  0  0  0  0  0  0  0  0  0  0  0
    7.6640    5.2190   14.9930 H   0  0  0  0  0  0  0  0  0  0  0  0
    5.9940    4.5980   15.2400 H   0  0  0  0  0  0  0  0  0  0  0  0
    0.5320   10.4740   21.2980 C   0  0  0  0  0  0  0  0  0  0  0  0
    0.9850   11.3360   20.3180 C   0  0  0  0  0  0  0  0  0  0  0  0
    0.3140   12.5440   20.1780 C   0  0  0  0  0  0  0  0  0  0  0  0
   -0.7430   12.8800   21.0280 C   0  0  0  0  0  0  0  0  0  0  0  0
   -1.1310   11.9650   22.0030 C   0  0  0  0  0  0  0  0  0  0  0  0
   -0.5140   10.7540   22.1340 N   0  0  0  0  0  0  0  0  0  0  0  0
    1.8280   11.0820   19.6840 H   0  0  0  0  0  0  0  0  0  0  0  0
   -1.2360   13.8470   20.9420 H   0  0  0  0  0  0  0  0  0  0  0  0
    0.7750   13.4990   19.1530 C   0  0  0  0  0  0  0  0  0  0  0  0
    0.0210   13.7510   18.2220 O   0  0  0  0  0  0  0  0  0  0  0  0
    2.0310   14.0510   19.3010 N   0  0  0  0  0  0  0  0  0  0  0  0
    2.5310   15.0110   18.3330 C   0  0  0  0  0  0  0  0  0  0  0  0
    3.9630   15.2670   18.7730 C   0  0  0  0  0  0  0  0  0  0  0  0
    3.8710   15.1440   20.2890 C   0  0  0  0  0  0  0  0  0  0  0  0
    2.8850   14.0020   20.4820 C   0  0  0  0  0  0  0  0  0  0  0  0
    2.4520   14.6150   17.3150 H   0  0  0  0  0  0  0  0  0  0  0  0
    1.9200   15.9190   18.4080 H   0  0  0  0  0  0  0  0  0  0  0  0
    4.3390   16.2370   18.4420 H   0  0  0  0  0  0  0  0  0  0  0  0
    4.6240   14.4850   18.3820 H   0  0  0  0  0  0  0  0  0  0  0  0
    3.4590   16.0680   20.7140 H   0  0  0  0  0  0  0  0  0  0  0  0
    4.8390   14.9500   20.7620 H   0  0  0  0  0  0  0  0  0  0  0  0
    2.2940   14.1020   21.3960 H   0  0  0  0  0  0  0  0  0  0  0  0
    3.4000   13.0380   20.4880 H   0  0  0  0  0  0  0  0  0  0  0  0
   -2.2720   12.3360   22.9420 C   0  0  0  0  0  0  0  0  0  0  0  0
   -1.9340   13.3490   23.7910 F   0  0  0  0  0  0  0  0  0  0  0  0
   -2.6470   11.2970   23.7410 F   0  0  0  0  0  0  0  0  0  0  0  0
   -3.4030   12.7470   22.3020 F   0  0  0  0  0  0  0  0  0  0  0  0
  1  2  1  0  0  0  0
  2  3  2  0  0  0  0
  4  1  1  0  0  0  0
  5 10  2  0  0  0  0
  5  6  1  0  0  0  0
  6  7  2  0  0  0  0
  7  8  1  0  0  0  0
  7 12  1  0  0  0  0
  8 13  1  0  0  0  0
  9  1  1  0  0  0  0
  9  8  2  0  0  0  0
 10  9  1  0  0  0  0
 11  6  1  0  0  0  0
 14 10  1  0  0  0  0
 15 16  1  6  0  0  0
 15  5  1  0  0  0  0
 17 18  1  0  0  0  0
 17 15  1  0  0  0  0
 17 19  1  0  0  0  0
 20 17  1  0  0  0  0
 21 15  1  0  0  0  0
 21 22  1  0  0  0  0
 22 23  2  0  0  0  0
 23 24  1  0  0  0  0
 25 24  2  0  0  0  0
 26 22  1  0  0  0  0
 26 25  1  0  0  0  0
 27 25  1  0  0  0  0
 28 26  1  0  0  0  0
 29 28  1  0  0  0  0
 30 28  1  0  0  0  0
 31 28  1  0  0  0  0
 32  2  1  0  0  0  0
 32 37  1  0  0  0  0
 33 32  2  0  0  0  0
 34 33  1  0  0  0  0
 34 35  2  0  0  0  0
 35 36  1  0  0  0  0
 36 37  2  0  0  0  0
 36 55  1  0  0  0  0
 38 33  1  0  0  0  0
 39 35  1  0  0  0  0
 40 42  1  0  0  0  0
 40 34  1  0  0  0  0
 41 40  2  0  0  0  0
 42 46  1  0  0  0  0
 43 48  1  0  0  0  0
 43 44  1  0  0  0  0
 43 42  1  0  0  0  0
 44 45  1  0  0  0  0
 45 46  1  0  0  0  0
 45 51  1  0  0  0  0
 45 52  1  0  0  0  0
 46 54  1  0  0  0  0
 46 53  1  0  0  0  0
 47 43  1  0  0  0  0
 49 44  1  0  0  0  0
 50 44  1  0  0  0  0
 55 57  1  0  0  0  0
 55 56  1  0  0  0  0
 58 55  1  0  0  0  0
M  END
>  <MODEL>
33

>  <REMARK>
 VINA RESULT:    -6.922      4.560      9.425
 INTER + INTRA:         -11.204
 INTER:                 -10.376
 INTRA:                  -0.827
 UNBOUND:                -1.044
  Name = 
  9 active torsions:
  status: ('A' for Active; 'I' for Inactive)
    1  A    between atoms: C_1  and  C_2
    2  A    between atoms: C_2  and  S_3
    3  A    between atoms: C_2  and  C_10
    4  A    between atoms: S_3  and  C_4
    5  A    between atoms: N_8  and  C_9
    6  A    between atoms: C_14  and  N_15
    7  A    between atoms: C_16  and  C_18
    8  A    between atoms: C_20  and  C_21
    9  A    between atoms: C_29  and  C_30
                            x       y       z     vdW  Elec       q    Type
                         _______ _______ _______ _____ _____    ______ ____

>  <TORSDO>
F 9

$$$$
