=
 OpenBabel07192307433D

 50 53  0  0  0  0  0  0  0  0999 V2000
    1.0440    8.5770   21.0900 C   0  0  0  0  0  0  0  0  0  0  0  0
    0.3090    8.8640   22.2460 C   0  0  0  0  0  0  0  0  0  0  0  0
   -0.2800   10.1200   22.4250 C   0  0  0  0  0  0  0  0  0  0  0  0
   -0.1430   11.1120   21.4520 C   0  0  0  0  0  0  0  0  0  0  0  0
    0.5880   10.8230   20.2940 C   0  0  0  0  0  0  0  0  0  0  0  0
    1.1770    9.5650   20.1150 C   0  0  0  0  0  0  0  0  0  0  0  0
    0.1780    8.1190   23.0270 H   0  0  0  0  0  0  0  0  0  0  0  0
   -0.8520   10.3150   23.3310 H   0  0  0  0  0  0  0  0  0  0  0  0
    0.7090   11.5740   19.5160 H   0  0  0  0  0  0  0  0  0  0  0  0
    1.7310    9.3910   19.1980 H   0  0  0  0  0  0  0  0  0  0  0  0
    2.3610    7.2240   18.7730 O   0  0  0  0  0  0  0  0  0  0  0  0
    2.1590    6.7010   19.8620 C   0  0  0  0  0  0  0  0  0  0  0  0
    1.5940    7.2840   20.9820 N   0  0  0  0  0  0  0  0  0  0  0  0
    1.6320    6.7510   21.8420 H   0  0  0  0  0  0  0  0  0  0  0  0
    2.5940    5.2990   20.0530 C   0  0  0  0  0  0  0  0  0  0  0  0
    1.8010    4.4230   20.8130 C   0  0  0  0  0  0  0  0  0  0  0  0
    2.1740    3.0740   20.9920 C   0  0  0  0  0  0  0  0  0  0  0  0
    3.3510    2.5720   20.4260 C   0  0  0  0  0  0  0  0  0  0  0  0
    4.1200    3.4550   19.7040 C   0  0  0  0  0  0  0  0  0  0  0  0
    5.3400    3.2420   19.0710 N   0  0  0  0  0  0  0  0  0  0  0  0
    5.7760    4.4490   18.5120 C   0  0  0  0  0  0  0  0  0  0  0  0
    6.8190    4.6410   17.9140 O   0  0  0  0  0  0  0  0  0  0  0  0
    4.7830    5.4000   18.7840 N   0  0  0  0  0  0  0  0  0  0  0  0
    3.7620    4.7910   19.5200 C   0  0  0  0  0  0  0  0  0  0  0  0
    0.8810    4.7870   21.2690 H   0  0  0  0  0  0  0  0  0  0  0  0
    1.5370    2.4190   21.5830 H   0  0  0  0  0  0  0  0  0  0  0  0
    3.6430    1.5380   20.5670 H   0  0  0  0  0  0  0  0  0  0  0  0
    5.8750    2.3900   19.0460 H   0  0  0  0  0  0  0  0  0  0  0  0
    4.8810    6.3810   18.5660 H   0  0  0  0  0  0  0  0  0  0  0  0
   -0.7970   12.4640   21.6300 C   0  0  0  0  0  0  0  0  0  0  0  0
   -1.5880   12.3980   22.3870 H   0  0  0  0  0  0  0  0  0  0  0  0
   -0.0490   13.1530   22.0440 H   0  0  0  0  0  0  0  0  0  0  0  0
   -1.3240   13.0350   20.3130 C   0  0  0  0  0  0  0  0  0  0  0  0
   -1.3880   14.1260   20.4070 H   0  0  0  0  0  0  0  0  0  0  0  0
   -0.6310   12.8030   19.4970 H   0  0  0  0  0  0  0  0  0  0  0  0
   -2.7220   12.5480   19.9640 C   0  0  0  0  0  0  0  0  0  0  0  0
   -3.6970   12.7760   20.6800 O   0  0  0  0  0  0  0  0  0  0  0  0
   -2.8470   11.8800   18.7640 N   0  0  0  0  0  0  0  0  0  0  0  0
   -4.1280   11.3610   18.3210 C   0  0  0  0  0  0  0  0  0  0  0  0
   -3.7830   10.4540   17.1480 C   0  0  0  0  0  0  0  0  0  0  0  0
   -2.5400   11.1120   16.5640 C   0  0  0  0  0  0  0  0  0  0  0  0
   -1.7960   11.5920   17.8030 C   0  0  0  0  0  0  0  0  0  0  0  0
   -4.6410   10.8320   19.1300 H   0  0  0  0  0  0  0  0  0  0  0  0
   -4.7430   12.2100   18.0020 H   0  0  0  0  0  0  0  0  0  0  0  0
   -4.6010   10.3660   16.4280 H   0  0  0  0  0  0  0  0  0  0  0  0
   -3.5340    9.4500   17.5110 H   0  0  0  0  0  0  0  0  0  0  0  0
   -1.9420   10.4330   15.9500 H   0  0  0  0  0  0  0  0  0  0  0  0
   -2.8310   11.9700   15.9450 H   0  0  0  0  0  0  0  0  0  0  0  0
   -1.1650   10.7990   18.2200 H   0  0  0  0  0  0  0  0  0  0  0  0
   -1.1830   12.4770   17.6100 H   0  0  0  0  0  0  0  0  0  0  0  0
  1  2  1  0  0  0  0
  2  3  2  0  0  0  0
  2  7  1  0  0  0  0
  3  8  1  0  0  0  0
  4 30  1  0  0  0  0
  4  3  1  0  0  0  0
  5  4  2  0  0  0  0
  6  5  1  0  0  0  0
  6  1  2  0  0  0  0
  9  5  1  0  0  0  0
 10  6  1  0  0  0  0
 11 12  2  0  0  0  0
 12 15  1  0  0  0  0
 12 13  1  0  0  0  0
 13  1  1  0  0  0  0
 13 14  1  0  0  0  0
 15 16  1  0  0  0  0
 16 17  2  0  0  0  0
 16 25  1  0  0  0  0
 17 26  1  0  0  0  0
 18 27  1  0  0  0  0
 18 17  1  0  0  0  0
 19 18  2  0  0  0  0
 20 19  1  0  0  0  0
 21 23  1  0  0  0  0
 21 20  1  0  0  0  0
 22 21  2  0  0  0  0
 23 24  1  0  0  0  0
 24 19  1  0  0  0  0
 24 15  2  0  0  0  0
 28 20  1  0  0  0  0
 29 23  1  0  0  0  0
 30 32  1  0  0  0  0
 30 31  1  0  0  0  0
 33 34  1  0  0  0  0
 33 30  1  0  0  0  0
 35 33  1  0  0  0  0
 36 33  1  0  0  0  0
 36 37  2  0  0  0  0
 38 36  1  0  0  0  0
 39 38  1  0  0  0  0
 39 43  1  0  0  0  0
 40 46  1  0  0  0  0
 40 39  1  0  0  0  0
 41 40  1  0  0  0  0
 41 42  1  0  0  0  0
 42 49  1  0  0  0  0
 42 38  1  0  0  0  0
 44 39  1  0  0  0  0
 45 40  1  0  0  0  0
 47 41  1  0  0  0  0
 48 41  1  0  0  0  0
 50 42  1  0  0  0  0
M  END
>  <MODEL>
1

>  <REMARK>
 VINA RESULT:    -8.731      0.000      0.000
 INTER + INTRA:         -11.973
 INTER:                 -11.252
 INTRA:                  -0.721
 UNBOUND:                -0.690
  Name = 
  5 active torsions:
  status: ('A' for Active; 'I' for Inactive)
    1  A    between atoms: C_2  and  C_19
    2  A    between atoms: N_3  and  C_4
    3  A    between atoms: C_7  and  C_8
    4  A    between atoms: C_8  and  C_9
    5  A    between atoms: C_9  and  C_10
                            x       y       z     vdW  Elec       q    Type
                         _______ _______ _______ _____ _____    ______ ____

>  <TORSDO>
F 5

$$$$
=
 OpenBabel07192307433D

 50 53  0  0  0  0  0  0  0  0999 V2000
    2.4600    7.8260   18.7060 C   0  0  0  0  0  0  0  0  0  0  0  0
    1.9490    8.9040   17.9760 C   0  0  0  0  0  0  0  0  0  0  0  0
    0.9800    9.7470   18.5280 C   0  0  0  0  0  0  0  0  0  0  0  0
    0.5040    9.5270   19.8230 C   0  0  0  0  0  0  0  0  0  0  0  0
    1.0190    8.4510   20.5550 C   0  0  0  0  0  0  0  0  0  0  0  0
    1.9890    7.6070   20.0010 C   0  0  0  0  0  0  0  0  0  0  0  0
    2.2950    9.1110   16.9660 H   0  0  0  0  0  0  0  0  0  0  0  0
    0.6050   10.5830   17.9400 H   0  0  0  0  0  0  0  0  0  0  0  0
    0.6700    8.2560   21.5670 H   0  0  0  0  0  0  0  0  0  0  0  0
    2.3570    6.7890   20.6120 H   0  0  0  0  0  0  0  0  0  0  0  0
    2.4100    4.9380   17.9350 O   0  0  0  0  0  0  0  0  0  0  0  0
    3.3700    5.6830   17.7840 C   0  0  0  0  0  0  0  0  0  0  0  0
    3.4430    7.0310   18.0810 N   0  0  0  0  0  0  0  0  0  0  0  0
    4.2650    7.5270   17.7600 H   0  0  0  0  0  0  0  0  0  0  0  0
    4.5980    5.1210   17.1770 C   0  0  0  0  0  0  0  0  0  0  0  0
    4.5360    4.5380   15.9000 C   0  0  0  0  0  0  0  0  0  0  0  0
    5.6930    4.0160   15.2820 C   0  0  0  0  0  0  0  0  0  0  0  0
    6.9330    4.0550   15.9280 C   0  0  0  0  0  0  0  0  0  0  0  0
    6.9630    4.6120   17.1860 C   0  0  0  0  0  0  0  0  0  0  0  0
    8.0340    4.7470   18.0610 N   0  0  0  0  0  0  0  0  0  0  0  0
    7.5770    5.3210   19.2540 C   0  0  0  0  0  0  0  0  0  0  0  0
    8.2350    5.5530   20.2510 O   0  0  0  0  0  0  0  0  0  0  0  0
    6.2080    5.5680   19.0800 N   0  0  0  0  0  0  0  0  0  0  0  0
    5.8260    5.1300   17.8080 C   0  0  0  0  0  0  0  0  0  0  0  0
    3.5830    4.4910   15.3750 H   0  0  0  0  0  0  0  0  0  0  0  0
    5.6150    3.5740   14.2910 H   0  0  0  0  0  0  0  0  0  0  0  0
    7.8220    3.6500   15.4590 H   0  0  0  0  0  0  0  0  0  0  0  0
    8.9840    4.4440   17.9170 H   0  0  0  0  0  0  0  0  0  0  0  0
    5.6080    5.9040   19.8190 H   0  0  0  0  0  0  0  0  0  0  0  0
   -0.5260   10.4490   20.4340 C   0  0  0  0  0  0  0  0  0  0  0  0
   -1.4390    9.8870   20.6660 H   0  0  0  0  0  0  0  0  0  0  0  0
   -0.1420   10.7980   21.4010 H   0  0  0  0  0  0  0  0  0  0  0  0
   -0.8220   11.6620   19.5500 C   0  0  0  0  0  0  0  0  0  0  0  0
   -0.4200   12.5570   20.0400 H   0  0  0  0  0  0  0  0  0  0  0  0
   -0.3260   11.5510   18.5800 H   0  0  0  0  0  0  0  0  0  0  0  0
   -2.3090   11.9100   19.3500 C   0  0  0  0  0  0  0  0  0  0  0  0
   -3.0060   12.4630   20.2010 O   0  0  0  0  0  0  0  0  0  0  0  0
   -2.8270   11.5280   18.1300 N   0  0  0  0  0  0  0  0  0  0  0  0
   -4.2340   11.7070   17.8200 C   0  0  0  0  0  0  0  0  0  0  0  0
   -4.4450   10.8970   16.5480 C   0  0  0  0  0  0  0  0  0  0  0  0
   -3.0900   10.9870   15.8580 C   0  0  0  0  0  0  0  0  0  0  0  0
   -2.1110   10.9180   17.0220 C   0  0  0  0  0  0  0  0  0  0  0  0
   -4.8670   11.3710   18.6470 H   0  0  0  0  0  0  0  0  0  0  0  0
   -4.4070   12.7750   17.6470 H   0  0  0  0  0  0  0  0  0  0  0  0
   -5.2650   11.2810   15.9350 H   0  0  0  0  0  0  0  0  0  0  0  0
   -4.6630    9.8520   16.8000 H   0  0  0  0  0  0  0  0  0  0  0  0
   -2.9290   10.1940   15.1230 H   0  0  0  0  0  0  0  0  0  0  0  0
   -2.9980   11.9530   15.3480 H   0  0  0  0  0  0  0  0  0  0  0  0
   -1.8900    9.8790   17.2940 H   0  0  0  0  0  0  0  0  0  0  0  0
   -1.1750   11.4440   16.8180 H   0  0  0  0  0  0  0  0  0  0  0  0
  1  6  1  0  0  0  0
  2  3  1  0  0  0  0
  2  1  2  0  0  0  0
  3  4  2  0  0  0  0
  4 30  1  0  0  0  0
  4  5  1  0  0  0  0
  5  9  1  0  0  0  0
  6  5  2  0  0  0  0
  6 10  1  0  0  0  0
  7  2  1  0  0  0  0
  8  3  1  0  0  0  0
 12 11  2  0  0  0  0
 12 13  1  0  0  0  0
 13  1  1  0  0  0  0
 14 13  1  0  0  0  0
 15 12  1  0  0  0  0
 15 24  1  0  0  0  0
 16 15  2  0  0  0  0
 17 16  1  0  0  0  0
 17 18  2  0  0  0  0
 18 19  1  0  0  0  0
 19 24  2  0  0  0  0
 19 20  1  0  0  0  0
 20 21  1  0  0  0  0
 21 22  2  0  0  0  0
 23 21  1  0  0  0  0
 23 29  1  0  0  0  0
 24 23  1  0  0  0  0
 25 16  1  0  0  0  0
 26 17  1  0  0  0  0
 27 18  1  0  0  0  0
 28 20  1  0  0  0  0
 30 31  1  0  0  0  0
 30 32  1  0  0  0  0
 33 34  1  0  0  0  0
 33 30  1  0  0  0  0
 35 33  1  0  0  0  0
 36 33  1  0  0  0  0
 36 37  2  0  0  0  0
 38 36  1  0  0  0  0
 39 38  1  0  0  0  0
 39 43  1  0  0  0  0
 40 46  1  0  0  0  0
 40 39  1  0  0  0  0
 41 40  1  0  0  0  0
 41 42  1  0  0  0  0
 42 49  1  0  0  0  0
 42 38  1  0  0  0  0
 44 39  1  0  0  0  0
 45 40  1  0  0  0  0
 47 41  1  0  0  0  0
 48 41  1  0  0  0  0
 50 42  1  0  0  0  0
M  END
>  <MODEL>
2

>  <REMARK>
 VINA RESULT:    -8.315      2.118      3.130
 INTER + INTRA:         -11.436
 INTER:                 -10.728
 INTRA:                  -0.708
 UNBOUND:                -0.690
  Name = 
  5 active torsions:
  status: ('A' for Active; 'I' for Inactive)
    1  A    between atoms: C_2  and  C_19
    2  A    between atoms: N_3  and  C_4
    3  A    between atoms: C_7  and  C_8
    4  A    between atoms: C_8  and  C_9
    5  A    between atoms: C_9  and  C_10
                            x       y       z     vdW  Elec       q    Type
                         _______ _______ _______ _____ _____    ______ ____

>  <TORSDO>
F 5

$$$$
=
 OpenBabel07192307433D

 50 53  0  0  0  0  0  0  0  0999 V2000
    0.8320   10.4450   20.3010 C   0  0  0  0  0  0  0  0  0  0  0  0
    1.0920   10.6870   18.9470 C   0  0  0  0  0  0  0  0  0  0  0  0
    1.6340    9.6880   18.1330 C   0  0  0  0  0  0  0  0  0  0  0  0
    1.9280    8.4270   18.6590 C   0  0  0  0  0  0  0  0  0  0  0  0
    1.6630    8.1840   20.0110 C   0  0  0  0  0  0  0  0  0  0  0  0
    1.1200    9.1850   20.8260 C   0  0  0  0  0  0  0  0  0  0  0  0
    0.8760   11.6540   18.4990 H   0  0  0  0  0  0  0  0  0  0  0  0
    1.8200    9.9010   17.0820 H   0  0  0  0  0  0  0  0  0  0  0  0
    1.8760    7.2110   20.4490 H   0  0  0  0  0  0  0  0  0  0  0  0
    0.9310    8.9440   21.8670 H   0  0  0  0  0  0  0  0  0  0  0  0
   -1.0140   10.3860   22.6510 O   0  0  0  0  0  0  0  0  0  0  0  0
   -0.6100   11.4070   22.1080 C   0  0  0  0  0  0  0  0  0  0  0  0
    0.2730   11.5020   21.0480 N   0  0  0  0  0  0  0  0  0  0  0  0
    0.6120   12.4270   20.8170 H   0  0  0  0  0  0  0  0  0  0  0  0
   -1.0630   12.7090   22.6480 C   0  0  0  0  0  0  0  0  0  0  0  0
   -0.2790   13.8570   22.4420 C   0  0  0  0  0  0  0  0  0  0  0  0
   -0.6950   15.1180   22.9200 C   0  0  0  0  0  0  0  0  0  0  0  0
   -1.8960   15.2590   23.6240 C   0  0  0  0  0  0  0  0  0  0  0  0
   -2.6350   14.1170   23.8310 C   0  0  0  0  0  0  0  0  0  0  0  0
   -3.8320   13.9590   24.5190 N   0  0  0  0  0  0  0  0  0  0  0  0
   -4.1790   12.6020   24.5190 C   0  0  0  0  0  0  0  0  0  0  0  0
   -5.1470   12.0970   25.0570 O   0  0  0  0  0  0  0  0  0  0  0  0
   -3.1880   11.9340   23.7860 N   0  0  0  0  0  0  0  0  0  0  0  0
   -2.2340   12.8640   23.3630 C   0  0  0  0  0  0  0  0  0  0  0  0
    0.6630   13.7760   21.9000 H   0  0  0  0  0  0  0  0  0  0  0  0
   -0.0680   15.9890   22.7420 H   0  0  0  0  0  0  0  0  0  0  0  0
   -2.2150   16.2250   23.9980 H   0  0  0  0  0  0  0  0  0  0  0  0
   -4.3610   14.6700   24.9970 H   0  0  0  0  0  0  0  0  0  0  0  0
   -3.1470   10.9300   23.6990 H   0  0  0  0  0  0  0  0  0  0  0  0
    2.4920    7.3360   17.7780 C   0  0  0  0  0  0  0  0  0  0  0  0
    1.6860    6.8720   17.1970 H   0  0  0  0  0  0  0  0  0  0  0  0
    3.1570    7.8020   17.0400 H   0  0  0  0  0  0  0  0  0  0  0  0
    3.2830    6.2960   18.5730 C   0  0  0  0  0  0  0  0  0  0  0  0
    4.3460    6.5660   18.5390 H   0  0  0  0  0  0  0  0  0  0  0  0
    2.9620    6.2970   19.6200 H   0  0  0  0  0  0  0  0  0  0  0  0
    3.1760    4.8920   17.9970 C   0  0  0  0  0  0  0  0  0  0  0  0
    3.8630    4.5150   17.0470 O   0  0  0  0  0  0  0  0  0  0  0  0
    2.2990    4.0410   18.6370 N   0  0  0  0  0  0  0  0  0  0  0  0
    2.1030    2.6780   18.1790 C   0  0  0  0  0  0  0  0  0  0  0  0
    0.8700    2.2000   18.9330 C   0  0  0  0  0  0  0  0  0  0  0  0
    0.9480    2.9790   20.2400 C   0  0  0  0  0  0  0  0  0  0  0  0
    1.4720    4.3380   19.7940 C   0  0  0  0  0  0  0  0  0  0  0  0
    1.9770    2.6400   17.0920 H   0  0  0  0  0  0  0  0  0  0  0  0
    2.9900    2.0990   18.4570 H   0  0  0  0  0  0  0  0  0  0  0  0
    0.8590    1.1170   19.0790 H   0  0  0  0  0  0  0  0  0  0  0  0
   -0.0380    2.4840   18.3870 H   0  0  0  0  0  0  0  0  0  0  0  0
   -0.0140    3.0470   20.7570 H   0  0  0  0  0  0  0  0  0  0  0  0
    1.6690    2.5020   20.9140 H   0  0  0  0  0  0  0  0  0  0  0  0
    0.6550    4.9910   19.4670 H   0  0  0  0  0  0  0  0  0  0  0  0
    2.0480    4.8440   20.5740 H   0  0  0  0  0  0  0  0  0  0  0  0
  1  6  1  0  0  0  0
  1 13  1  0  0  0  0
  2  1  2  0  0  0  0
  3  4  2  0  0  0  0
  3  2  1  0  0  0  0
  4  5  1  0  0  0  0
  5  9  1  0  0  0  0
  5  6  2  0  0  0  0
  6 10  1  0  0  0  0
  7  2  1  0  0  0  0
  8  3  1  0  0  0  0
 12 15  1  0  0  0  0
 12 11  2  0  0  0  0
 13 12  1  0  0  0  0
 14 13  1  0  0  0  0
 15 24  1  0  0  0  0
 16 15  2  0  0  0  0
 16 17  1  0  0  0  0
 17 18  2  0  0  0  0
 18 19  1  0  0  0  0
 18 27  1  0  0  0  0
 19 20  1  0  0  0  0
 20 21  1  0  0  0  0
 20 28  1  0  0  0  0
 21 22  2  0  0  0  0
 23 21  1  0  0  0  0
 24 23  1  0  0  0  0
 24 19  2  0  0  0  0
 25 16  1  0  0  0  0
 26 17  1  0  0  0  0
 29 23  1  0  0  0  0
 30 33  1  0  0  0  0
 30  4  1  0  0  0  0
 31 30  1  0  0  0  0
 32 30  1  0  0  0  0
 33 35  1  0  0  0  0
 34 33  1  0  0  0  0
 36 33  1  0  0  0  0
 36 38  1  0  0  0  0
 37 36  2  0  0  0  0
 38 42  1  0  0  0  0
 39 44  1  0  0  0  0
 39 38  1  0  0  0  0
 39 40  1  0  0  0  0
 40 45  1  0  0  0  0
 40 41  1  0  0  0  0
 41 47  1  0  0  0  0
 41 48  1  0  0  0  0
 42 41  1  0  0  0  0
 42 50  1  0  0  0  0
 43 39  1  0  0  0  0
 46 40  1  0  0  0  0
 49 42  1  0  0  0  0
M  END
>  <MODEL>
3

>  <REMARK>
 VINA RESULT:    -8.109      2.910      9.640
 INTER + INTRA:         -11.169
 INTER:                 -10.468
 INTRA:                  -0.701
 UNBOUND:                -0.690
  Name = 
  5 active torsions:
  status: ('A' for Active; 'I' for Inactive)
    1  A    between atoms: C_2  and  C_19
    2  A    between atoms: N_3  and  C_4
    3  A    between atoms: C_7  and  C_8
    4  A    between atoms: C_8  and  C_9
    5  A    between atoms: C_9  and  C_10
                            x       y       z     vdW  Elec       q    Type
                         _______ _______ _______ _____ _____    ______ ____

>  <TORSDO>
F 5

$$$$
=
 OpenBabel07192307433D

 50 53  0  0  0  0  0  0  0  0999 V2000
    0.8570    8.5720   21.1810 C   0  0  0  0  0  0  0  0  0  0  0  0
    0.2950    8.8980   22.4210 C   0  0  0  0  0  0  0  0  0  0  0  0
   -0.2730   10.1570   22.6390 C   0  0  0  0  0  0  0  0  0  0  0  0
   -0.2900   11.1140   21.6200 C   0  0  0  0  0  0  0  0  0  0  0  0
    0.2680   10.7840   20.3790 C   0  0  0  0  0  0  0  0  0  0  0  0
    0.8370    9.5240   20.1620 C   0  0  0  0  0  0  0  0  0  0  0  0
    0.2870    8.1820   23.2380 H   0  0  0  0  0  0  0  0  0  0  0  0
   -0.7090   10.3830   23.6100 H   0  0  0  0  0  0  0  0  0  0  0  0
    0.2660   11.5070   19.5650 H   0  0  0  0  0  0  0  0  0  0  0  0
    1.2530    9.3180   19.1810 H   0  0  0  0  0  0  0  0  0  0  0  0
    2.5230    7.4000   18.9930 O   0  0  0  0  0  0  0  0  0  0  0  0
    2.1330    6.7850   19.9780 C   0  0  0  0  0  0  0  0  0  0  0  0
    1.3980    7.2780   21.0400 N   0  0  0  0  0  0  0  0  0  0  0  0
    1.2840    6.6670   21.8400 H   0  0  0  0  0  0  0  0  0  0  0  0
    2.5100    5.3590   20.1010 C   0  0  0  0  0  0  0  0  0  0  0  0
    1.6570    4.4710   20.7790 C   0  0  0  0  0  0  0  0  0  0  0  0
    1.9730    3.1000   20.8910 C   0  0  0  0  0  0  0  0  0  0  0  0
    3.1520    2.5870   20.3400 C   0  0  0  0  0  0  0  0  0  0  0  0
    3.9800    3.4800   19.7000 C   0  0  0  0  0  0  0  0  0  0  0  0
    5.2150    3.2580   19.1010 N   0  0  0  0  0  0  0  0  0  0  0  0
    5.7170    4.4770   18.6300 C   0  0  0  0  0  0  0  0  0  0  0  0
    6.7880    4.6620   18.0830 O   0  0  0  0  0  0  0  0  0  0  0  0
    4.7490    5.4480   18.9210 N   0  0  0  0  0  0  0  0  0  0  0  0
    3.6790    4.8380   19.5830 C   0  0  0  0  0  0  0  0  0  0  0  0
    0.7330    4.8440   21.2210 H   0  0  0  0  0  0  0  0  0  0  0  0
    1.2900    2.4370   21.4190 H   0  0  0  0  0  0  0  0  0  0  0  0
    3.4010    1.5360   20.4300 H   0  0  0  0  0  0  0  0  0  0  0  0
    5.7200    2.3880   19.0440 H   0  0  0  0  0  0  0  0  0  0  0  0
    4.8910    6.4350   18.7650 H   0  0  0  0  0  0  0  0  0  0  0  0
   -0.9240   12.4670   21.8430 C   0  0  0  0  0  0  0  0  0  0  0  0
   -1.6840   12.6530   21.0750 H   0  0  0  0  0  0  0  0  0  0  0  0
   -1.4690   12.4380   22.7950 H   0  0  0  0  0  0  0  0  0  0  0  0
    0.1090   13.5940   21.8970 C   0  0  0  0  0  0  0  0  0  0  0  0
   -0.1580   14.2730   22.7160 H   0  0  0  0  0  0  0  0  0  0  0  0
    1.1030   13.1840   22.1030 H   0  0  0  0  0  0  0  0  0  0  0  0
    0.1440   14.4380   20.6320 C   0  0  0  0  0  0  0  0  0  0  0  0
   -0.8310   15.0790   20.2390 O   0  0  0  0  0  0  0  0  0  0  0  0
    1.3550   14.4880   19.9730 N   0  0  0  0  0  0  0  0  0  0  0  0
    1.5160   15.2540   18.7500 C   0  0  0  0  0  0  0  0  0  0  0  0
    2.8610   14.8040   18.1980 C   0  0  0  0  0  0  0  0  0  0  0  0
    3.6480   14.4600   19.4560 C   0  0  0  0  0  0  0  0  0  0  0  0
    2.5920   13.8280   20.3530 C   0  0  0  0  0  0  0  0  0  0  0  0
    0.6890   15.0700   18.0570 H   0  0  0  0  0  0  0  0  0  0  0  0
    1.5280   16.3160   19.0180 H   0  0  0  0  0  0  0  0  0  0  0  0
    3.3430   15.5720   17.5870 H   0  0  0  0  0  0  0  0  0  0  0  0
    2.7340   13.9050   17.5840 H   0  0  0  0  0  0  0  0  0  0  0  0
    4.4930   13.7940   19.2650 H   0  0  0  0  0  0  0  0  0  0  0  0
    4.0300   15.3790   19.9170 H   0  0  0  0  0  0  0  0  0  0  0  0
    2.4820   12.7570   20.1440 H   0  0  0  0  0  0  0  0  0  0  0  0
    2.8040   13.9670   21.4170 H   0  0  0  0  0  0  0  0  0  0  0  0
  1  2  1  0  0  0  0
  2  3  2  0  0  0  0
  2  7  1  0  0  0  0
  3  8  1  0  0  0  0
  4 30  1  0  0  0  0
  4  3  1  0  0  0  0
  5  4  2  0  0  0  0
  6  5  1  0  0  0  0
  6  1  2  0  0  0  0
  9  5  1  0  0  0  0
 10  6  1  0  0  0  0
 11 12  2  0  0  0  0
 12 15  1  0  0  0  0
 12 13  1  0  0  0  0
 13  1  1  0  0  0  0
 13 14  1  0  0  0  0
 15 16  1  0  0  0  0
 16 17  2  0  0  0  0
 16 25  1  0  0  0  0
 17 26  1  0  0  0  0
 18 27  1  0  0  0  0
 18 17  1  0  0  0  0
 19 18  2  0  0  0  0
 20 19  1  0  0  0  0
 21 23  1  0  0  0  0
 21 20  1  0  0  0  0
 22 21  2  0  0  0  0
 23 24  1  0  0  0  0
 24 19  1  0  0  0  0
 24 15  2  0  0  0  0
 28 20  1  0  0  0  0
 29 23  1  0  0  0  0
 30 33  1  0  0  0  0
 30 32  1  0  0  0  0
 31 30  1  0  0  0  0
 33 35  1  0  0  0  0
 33 34  1  0  0  0  0
 36 33  1  0  0  0  0
 37 36  2  0  0  0  0
 38 42  1  0  0  0  0
 38 36  1  0  0  0  0
 39 44  1  0  0  0  0
 39 38  1  0  0  0  0
 40 39  1  0  0  0  0
 40 41  1  0  0  0  0
 41 48  1  0  0  0  0
 41 42  1  0  0  0  0
 42 50  1  0  0  0  0
 43 39  1  0  0  0  0
 45 40  1  0  0  0  0
 46 40  1  0  0  0  0
 47 41  1  0  0  0  0
 49 42  1  0  0  0  0
M  END
>  <MODEL>
4

>  <REMARK>
 VINA RESULT:    -8.105      2.196      3.033
 INTER + INTRA:         -11.164
 INTER:                 -10.473
 INTRA:                  -0.692
 UNBOUND:                -0.690
  Name = 
  5 active torsions:
  status: ('A' for Active; 'I' for Inactive)
    1  A    between atoms: C_2  and  C_19
    2  A    between atoms: N_3  and  C_4
    3  A    between atoms: C_7  and  C_8
    4  A    between atoms: C_8  and  C_9
    5  A    between atoms: C_9  and  C_10
                            x       y       z     vdW  Elec       q    Type
                         _______ _______ _______ _____ _____    ______ ____

>  <TORSDO>
F 5

$$$$
=
 OpenBabel07192307433D

 50 53  0  0  0  0  0  0  0  0999 V2000
    1.6290    9.3370   17.8330 C   0  0  0  0  0  0  0  0  0  0  0  0
    2.2910   10.5370   18.1150 C   0  0  0  0  0  0  0  0  0  0  0  0
    1.5780   11.6690   18.5220 C   0  0  0  0  0  0  0  0  0  0  0  0
    0.1890   11.6210   18.6540 C   0  0  0  0  0  0  0  0  0  0  0  0
   -0.4730   10.4190   18.3770 C   0  0  0  0  0  0  0  0  0  0  0  0
    0.2420    9.2870   17.9690 C   0  0  0  0  0  0  0  0  0  0  0  0
    3.3720   10.6150   18.0260 H   0  0  0  0  0  0  0  0  0  0  0  0
    2.1200   12.5880   18.7420 H   0  0  0  0  0  0  0  0  0  0  0  0
   -1.5540   10.3500   18.4740 H   0  0  0  0  0  0  0  0  0  0  0  0
   -0.3190    8.3790   17.7690 H   0  0  0  0  0  0  0  0  0  0  0  0
    2.5630    6.9680   19.3970 O   0  0  0  0  0  0  0  0  0  0  0  0
    2.8540    7.1890   18.2280 C   0  0  0  0  0  0  0  0  0  0  0  0
    2.4230    8.2400   17.4400 N   0  0  0  0  0  0  0  0  0  0  0  0
    2.6450    8.1930   16.4530 H   0  0  0  0  0  0  0  0  0  0  0  0
    3.7300    6.2190   17.5330 C   0  0  0  0  0  0  0  0  0  0  0  0
    4.6770    6.6810   16.6030 C   0  0  0  0  0  0  0  0  0  0  0  0
    5.5450    5.7860   15.9430 C   0  0  0  0  0  0  0  0  0  0  0  0
    5.4810    4.4100   16.1870 C   0  0  0  0  0  0  0  0  0  0  0  0
    4.5310    3.9810   17.0850 C   0  0  0  0  0  0  0  0  0  0  0  0
    4.2220    2.6860   17.4850 N   0  0  0  0  0  0  0  0  0  0  0  0
    3.1410    2.7310   18.3740 C   0  0  0  0  0  0  0  0  0  0  0  0
    2.5860    1.7820   18.8950 O   0  0  0  0  0  0  0  0  0  0  0  0
    2.8130    4.0830   18.5390 N   0  0  0  0  0  0  0  0  0  0  0  0
    3.6660    4.8560   17.7440 C   0  0  0  0  0  0  0  0  0  0  0  0
    4.7480    7.7480   16.3910 H   0  0  0  0  0  0  0  0  0  0  0  0
    6.2710    6.1740   15.2310 H   0  0  0  0  0  0  0  0  0  0  0  0
    6.1410    3.7190   15.6770 H   0  0  0  0  0  0  0  0  0  0  0  0
    4.6480    1.8300   17.1680 H   0  0  0  0  0  0  0  0  0  0  0  0
    2.0120    4.3990   19.0650 H   0  0  0  0  0  0  0  0  0  0  0  0
   -0.5850   12.8350   19.1170 C   0  0  0  0  0  0  0  0  0  0  0  0
   -0.4180   13.6690   18.4250 H   0  0  0  0  0  0  0  0  0  0  0  0
   -1.6560   12.6050   19.0470 H   0  0  0  0  0  0  0  0  0  0  0  0
   -0.2540   13.2230   20.5580 C   0  0  0  0  0  0  0  0  0  0  0  0
    0.8010   12.9930   20.7480 H   0  0  0  0  0  0  0  0  0  0  0  0
   -0.4000   14.2990   20.7020 H   0  0  0  0  0  0  0  0  0  0  0  0
   -1.0580   12.4460   21.5890 C   0  0  0  0  0  0  0  0  0  0  0  0
   -2.1850   12.7910   21.9450 O   0  0  0  0  0  0  0  0  0  0  0  0
   -0.4720   11.2920   22.0680 N   0  0  0  0  0  0  0  0  0  0  0  0
   -1.1350   10.4660   23.0600 C   0  0  0  0  0  0  0  0  0  0  0  0
   -0.0550    9.5010   23.5300 C   0  0  0  0  0  0  0  0  0  0  0  0
    0.8210    9.3420   22.2940 C   0  0  0  0  0  0  0  0  0  0  0  0
    0.8210   10.7430   21.6960 C   0  0  0  0  0  0  0  0  0  0  0  0
   -1.5440   11.0750   23.8720 H   0  0  0  0  0  0  0  0  0  0  0  0
   -1.9550    9.9360   22.5630 H   0  0  0  0  0  0  0  0  0  0  0  0
   -0.4650    8.5540   23.8910 H   0  0  0  0  0  0  0  0  0  0  0  0
    0.5280    9.9560   24.3400 H   0  0  0  0  0  0  0  0  0  0  0  0
    1.8270    8.9810   22.5250 H   0  0  0  0  0  0  0  0  0  0  0  0
    0.3530    8.6370   21.5970 H   0  0  0  0  0  0  0  0  0  0  0  0
    1.5980   11.3690   22.1510 H   0  0  0  0  0  0  0  0  0  0  0  0
    0.9520   10.7380   20.6110 H   0  0  0  0  0  0  0  0  0  0  0  0
  1  6  2  0  0  0  0
  1  2  1  0  0  0  0
  2  3  2  0  0  0  0
  3  4  1  0  0  0  0
  3  8  1  0  0  0  0
  4 30  1  0  0  0  0
  5  9  1  0  0  0  0
  5  4  2  0  0  0  0
  6  5  1  0  0  0  0
  7  2  1  0  0  0  0
 10  6  1  0  0  0  0
 12 11  2  0  0  0  0
 13  1  1  0  0  0  0
 13 12  1  0  0  0  0
 14 13  1  0  0  0  0
 15 24  1  0  0  0  0
 15 12  1  0  0  0  0
 16 15  2  0  0  0  0
 17 18  2  0  0  0  0
 17 16  1  0  0  0  0
 18 19  1  0  0  0  0
 19 20  1  0  0  0  0
 19 24  2  0  0  0  0
 20 21  1  0  0  0  0
 21 23  1  0  0  0  0
 21 22  2  0  0  0  0
 23 29  1  0  0  0  0
 24 23  1  0  0  0  0
 25 16  1  0  0  0  0
 26 17  1  0  0  0  0
 27 18  1  0  0  0  0
 28 20  1  0  0  0  0
 30 33  1  0  0  0  0
 31 30  1  0  0  0  0
 32 30  1  0  0  0  0
 33 35  1  0  0  0  0
 33 34  1  0  0  0  0
 33 36  1  0  0  0  0
 36 37  2  0  0  0  0
 36 38  1  0  0  0  0
 38 39  1  0  0  0  0
 39 40  1  0  0  0  0
 39 43  1  0  0  0  0
 40 45  1  0  0  0  0
 40 46  1  0  0  0  0
 41 47  1  0  0  0  0
 41 40  1  0  0  0  0
 42 38  1  0  0  0  0
 42 49  1  0  0  0  0
 42 41  1  0  0  0  0
 44 39  1  0  0  0  0
 48 41  1  0  0  0  0
 50 42  1  0  0  0  0
M  END
>  <MODEL>
5

>  <REMARK>
 VINA RESULT:    -8.101      2.463      4.017
 INTER + INTRA:         -11.159
 INTER:                 -10.184
 INTRA:                  -0.975
 UNBOUND:                -0.690
  Name = 
  5 active torsions:
  status: ('A' for Active; 'I' for Inactive)
    1  A    between atoms: C_2  and  C_19
    2  A    between atoms: N_3  and  C_4
    3  A    between atoms: C_7  and  C_8
    4  A    between atoms: C_8  and  C_9
    5  A    between atoms: C_9  and  C_10
                            x       y       z     vdW  Elec       q    Type
                         _______ _______ _______ _____ _____    ______ ____

>  <TORSDO>
F 5

$$$$
=
 OpenBabel07192307433D

 50 53  0  0  0  0  0  0  0  0999 V2000
    2.4960    6.8640   19.5800 C   0  0  0  0  0  0  0  0  0  0  0  0
    2.5830    5.5480   20.0460 C   0  0  0  0  0  0  0  0  0  0  0  0
    3.3690    4.6030   19.3780 C   0  0  0  0  0  0  0  0  0  0  0  0
    4.0820    4.9590   18.2300 C   0  0  0  0  0  0  0  0  0  0  0  0
    3.9990    6.2770   17.7680 C   0  0  0  0  0  0  0  0  0  0  0  0
    3.2120    7.2220   18.4370 C   0  0  0  0  0  0  0  0  0  0  0  0
    2.0450    5.2310   20.9360 H   0  0  0  0  0  0  0  0  0  0  0  0
    3.4250    3.5870   19.7660 H   0  0  0  0  0  0  0  0  0  0  0  0
    4.5460    6.5860   16.8800 H   0  0  0  0  0  0  0  0  0  0  0  0
    3.1840    8.2310   18.0390 H   0  0  0  0  0  0  0  0  0  0  0  0
    1.1910    9.4240   18.7560 O   0  0  0  0  0  0  0  0  0  0  0  0
    1.1470    8.9510   19.8860 C   0  0  0  0  0  0  0  0  0  0  0  0
    1.6920    7.7570   20.3180 N   0  0  0  0  0  0  0  0  0  0  0  0
    1.4390    7.4490   21.2490 H   0  0  0  0  0  0  0  0  0  0  0  0
    0.3960    9.6940   20.9220 C   0  0  0  0  0  0  0  0  0  0  0  0
    0.0810    9.0630   22.1380 C   0  0  0  0  0  0  0  0  0  0  0  0
   -0.6110    9.7520   23.1580 C   0  0  0  0  0  0  0  0  0  0  0  0
   -1.0130   11.0800   22.9830 C   0  0  0  0  0  0  0  0  0  0  0  0
   -0.7130   11.6680   21.7750 C   0  0  0  0  0  0  0  0  0  0  0  0
   -1.0200   12.9450   21.3200 N   0  0  0  0  0  0  0  0  0  0  0  0
   -0.5620   13.0800   20.0040 C   0  0  0  0  0  0  0  0  0  0  0  0
   -0.6890   14.0530   19.2840 O   0  0  0  0  0  0  0  0  0  0  0  0
    0.0640   11.8710   19.6710 N   0  0  0  0  0  0  0  0  0  0  0  0
   -0.0290   10.9980   20.7600 C   0  0  0  0  0  0  0  0  0  0  0  0
    0.3800    8.0280   22.3010 H   0  0  0  0  0  0  0  0  0  0  0  0
   -0.8360    9.2380   24.0900 H   0  0  0  0  0  0  0  0  0  0  0  0
   -1.5500   11.6100   23.7610 H   0  0  0  0  0  0  0  0  0  0  0  0
   -1.5320   13.6620   21.8090 H   0  0  0  0  0  0  0  0  0  0  0  0
    0.4110   11.6640   18.7470 H   0  0  0  0  0  0  0  0  0  0  0  0
    4.9520    3.9490   17.5180 C   0  0  0  0  0  0  0  0  0  0  0  0
    5.9750    3.9940   17.9110 H   0  0  0  0  0  0  0  0  0  0  0  0
    4.5850    2.9450   17.7680 H   0  0  0  0  0  0  0  0  0  0  0  0
    4.9250    4.1230   15.9990 C   0  0  0  0  0  0  0  0  0  0  0  0
    4.8160    3.1340   15.5360 H   0  0  0  0  0  0  0  0  0  0  0  0
    4.0650    4.7340   15.7050 H   0  0  0  0  0  0  0  0  0  0  0  0
    6.2070    4.7220   15.4400 C   0  0  0  0  0  0  0  0  0  0  0  0
    6.9950    5.3610   16.1380 O   0  0  0  0  0  0  0  0  0  0  0  0
    6.4660    4.4630   14.1110 N   0  0  0  0  0  0  0  0  0  0  0  0
    7.6540    4.9840   13.4590 C   0  0  0  0  0  0  0  0  0  0  0  0
    7.4070    4.7420   11.9760 C   0  0  0  0  0  0  0  0  0  0  0  0
    6.5480    3.4840   11.9750 C   0  0  0  0  0  0  0  0  0  0  0  0
    5.6540    3.6830   13.1920 C   0  0  0  0  0  0  0  0  0  0  0  0
    7.8030    6.0410   13.6980 H   0  0  0  0  0  0  0  0  0  0  0  0
    8.5150    4.4110   13.8200 H   0  0  0  0  0  0  0  0  0  0  0  0
    8.3350    4.6290   11.4080 H   0  0  0  0  0  0  0  0  0  0  0  0
    6.8410    5.5770   11.5490 H   0  0  0  0  0  0  0  0  0  0  0  0
    5.9790    3.3540   11.0500 H   0  0  0  0  0  0  0  0  0  0  0  0
    7.1830    2.6020   12.1170 H   0  0  0  0  0  0  0  0  0  0  0  0
    4.7660    4.2760   12.9400 H   0  0  0  0  0  0  0  0  0  0  0  0
    5.3400    2.7380   13.6440 H   0  0  0  0  0  0  0  0  0  0  0  0
  1  2  1  0  0  0  0
  1 13  1  0  0  0  0
  2  7  1  0  0  0  0
  3  8  1  0  0  0  0
  3  2  2  0  0  0  0
  4  3  1  0  0  0  0
  5  4  2  0  0  0  0
  5  6  1  0  0  0  0
  6  1  2  0  0  0  0
  9  5  1  0  0  0  0
 10  6  1  0  0  0  0
 11 12  2  0  0  0  0
 12 13  1  0  0  0  0
 12 15  1  0  0  0  0
 13 14  1  0  0  0  0
 15 16  1  0  0  0  0
 16 25  1  0  0  0  0
 16 17  2  0  0  0  0
 17 26  1  0  0  0  0
 18 17  1  0  0  0  0
 18 27  1  0  0  0  0
 19 18  2  0  0  0  0
 20 19  1  0  0  0  0
 20 28  1  0  0  0  0
 21 20  1  0  0  0  0
 22 21  2  0  0  0  0
 23 21  1  0  0  0  0
 23 24  1  0  0  0  0
 24 15  2  0  0  0  0
 24 19  1  0  0  0  0
 29 23  1  0  0  0  0
 30 32  1  0  0  0  0
 30 31  1  0  0  0  0
 30  4  1  0  0  0  0
 33 30  1  0  0  0  0
 34 33  1  0  0  0  0
 35 33  1  0  0  0  0
 36 33  1  0  0  0  0
 36 37  2  0  0  0  0
 38 36  1  0  0  0  0
 39 43  1  0  0  0  0
 39 44  1  0  0  0  0
 39 38  1  0  0  0  0
 40 39  1  0  0  0  0
 41 40  1  0  0  0  0
 41 48  1  0  0  0  0
 41 42  1  0  0  0  0
 42 50  1  0  0  0  0
 42 38  1  0  0  0  0
 45 40  1  0  0  0  0
 46 40  1  0  0  0  0
 47 41  1  0  0  0  0
 49 42  1  0  0  0  0
M  END
>  <MODEL>
6

>  <REMARK>
 VINA RESULT:    -8.090      3.006      9.447
 INTER + INTRA:         -11.144
 INTER:                 -10.574
 INTRA:                  -0.570
 UNBOUND:                -0.690
  Name = 
  5 active torsions:
  status: ('A' for Active; 'I' for Inactive)
    1  A    between atoms: C_2  and  C_19
    2  A    between atoms: N_3  and  C_4
    3  A    between atoms: C_7  and  C_8
    4  A    between atoms: C_8  and  C_9
    5  A    between atoms: C_9  and  C_10
                            x       y       z     vdW  Elec       q    Type
                         _______ _______ _______ _____ _____    ______ ____

>  <TORSDO>
F 5

$$$$
=
 OpenBabel07192307433D

 50 53  0  0  0  0  0  0  0  0999 V2000
    2.3610    7.3970   19.0180 C   0  0  0  0  0  0  0  0  0  0  0  0
    3.0050    7.4780   17.7780 C   0  0  0  0  0  0  0  0  0  0  0  0
    3.9520    6.5220   17.4000 C   0  0  0  0  0  0  0  0  0  0  0  0
    4.2740    5.4660   18.2560 C   0  0  0  0  0  0  0  0  0  0  0  0
    3.6250    5.3820   19.4940 C   0  0  0  0  0  0  0  0  0  0  0  0
    2.6770    6.3400   19.8720 C   0  0  0  0  0  0  0  0  0  0  0  0
    2.7820    8.2840   17.0830 H   0  0  0  0  0  0  0  0  0  0  0  0
    4.4340    6.6050   16.4270 H   0  0  0  0  0  0  0  0  0  0  0  0
    3.8510    4.5680   20.1810 H   0  0  0  0  0  0  0  0  0  0  0  0
    2.2010    6.2270   20.8400 H   0  0  0  0  0  0  0  0  0  0  0  0
    1.9980   10.1300   17.8630 O   0  0  0  0  0  0  0  0  0  0  0  0
    1.3200    9.6600   18.7690 C   0  0  0  0  0  0  0  0  0  0  0  0
    1.4100    8.3940   19.3170 N   0  0  0  0  0  0  0  0  0  0  0  0
    0.6780    8.1210   19.9600 H   0  0  0  0  0  0  0  0  0  0  0  0
    0.2420   10.5000   19.3380 C   0  0  0  0  0  0  0  0  0  0  0  0
    0.3270   10.9270   20.6740 C   0  0  0  0  0  0  0  0  0  0  0  0
   -0.6700   11.7510   21.2400 C   0  0  0  0  0  0  0  0  0  0  0  0
   -1.7790   12.1570   20.4890 C   0  0  0  0  0  0  0  0  0  0  0  0
   -1.8490   11.7070   19.1900 C   0  0  0  0  0  0  0  0  0  0  0  0
   -2.8420   11.9200   18.2410 N   0  0  0  0  0  0  0  0  0  0  0  0
   -2.5130   11.2160   17.0760 C   0  0  0  0  0  0  0  0  0  0  0  0
   -3.1720   11.1490   16.0550 O   0  0  0  0  0  0  0  0  0  0  0  0
   -1.2810   10.5940   17.3170 N   0  0  0  0  0  0  0  0  0  0  0  0
   -0.8700   10.8920   18.6200 C   0  0  0  0  0  0  0  0  0  0  0  0
    1.1780   10.6240   21.2840 H   0  0  0  0  0  0  0  0  0  0  0  0
   -0.5740   12.0690   22.2760 H   0  0  0  0  0  0  0  0  0  0  0  0
   -2.5490   12.7830   20.9220 H   0  0  0  0  0  0  0  0  0  0  0  0
   -3.6950   12.4430   18.3540 H   0  0  0  0  0  0  0  0  0  0  0  0
   -0.8500    9.9510   16.6700 H   0  0  0  0  0  0  0  0  0  0  0  0
    5.2790    4.4160   17.8440 C   0  0  0  0  0  0  0  0  0  0  0  0
    6.2740    4.6830   18.2210 H   0  0  0  0  0  0  0  0  0  0  0  0
    5.0170    3.4750   18.3460 H   0  0  0  0  0  0  0  0  0  0  0  0
    5.2950    4.1840   16.3320 C   0  0  0  0  0  0  0  0  0  0  0  0
    5.3880    3.1070   16.1450 H   0  0  0  0  0  0  0  0  0  0  0  0
    4.3540    4.5270   15.8890 H   0  0  0  0  0  0  0  0  0  0  0  0
    6.4730    4.8460   15.6350 C   0  0  0  0  0  0  0  0  0  0  0  0
    7.2790    5.5580   16.2340 O   0  0  0  0  0  0  0  0  0  0  0  0
    6.6200    4.5600   14.2940 N   0  0  0  0  0  0  0  0  0  0  0  0
    7.7010    5.1360   13.5150 C   0  0  0  0  0  0  0  0  0  0  0  0
    7.3300    4.8290   12.0700 C   0  0  0  0  0  0  0  0  0  0  0  0
    6.5620    3.5190   12.1870 C   0  0  0  0  0  0  0  0  0  0  0  0
    5.7780    3.7000   13.4800 C   0  0  0  0  0  0  0  0  0  0  0  0
    7.8010    6.2080   13.7090 H   0  0  0  0  0  0  0  0  0  0  0  0
    8.6300    4.6320   13.8050 H   0  0  0  0  0  0  0  0  0  0  0  0
    8.2040    4.7580   11.4170 H   0  0  0  0  0  0  0  0  0  0  0  0
    6.6700    5.6110   11.6780 H   0  0  0  0  0  0  0  0  0  0  0  0
    5.9180    3.3210   11.3260 H   0  0  0  0  0  0  0  0  0  0  0  0
    7.2670    2.6850   12.2890 H   0  0  0  0  0  0  0  0  0  0  0  0
    4.8320    4.2240   13.3000 H   0  0  0  0  0  0  0  0  0  0  0  0
    5.5740    2.7520   13.9860 H   0  0  0  0  0  0  0  0  0  0  0  0
  1 13  1  0  0  0  0
  1  6  1  0  0  0  0
  2  1  2  0  0  0  0
  3  2  1  0  0  0  0
  3  4  2  0  0  0  0
  4  5  1  0  0  0  0
  5  6  2  0  0  0  0
  5  9  1  0  0  0  0
  6 10  1  0  0  0  0
  7  2  1  0  0  0  0
  8  3  1  0  0  0  0
 11 12  2  0  0  0  0
 12 13  1  0  0  0  0
 12 15  1  0  0  0  0
 13 14  1  0  0  0  0
 15 16  1  0  0  0  0
 16 17  2  0  0  0  0
 16 25  1  0  0  0  0
 17 26  1  0  0  0  0
 18 27  1  0  0  0  0
 18 17  1  0  0  0  0
 19 18  2  0  0  0  0
 20 28  1  0  0  0  0
 20 19  1  0  0  0  0
 21 23  1  0  0  0  0
 21 20  1  0  0  0  0
 22 21  2  0  0  0  0
 23 24  1  0  0  0  0
 24 19  1  0  0  0  0
 24 15  2  0  0  0  0
 29 23  1  0  0  0  0
 30 31  1  0  0  0  0
 30  4  1  0  0  0  0
 30 32  1  0  0  0  0
 33 30  1  0  0  0  0
 34 33  1  0  0  0  0
 35 33  1  0  0  0  0
 36 37  2  0  0  0  0
 36 33  1  0  0  0  0
 38 36  1  0  0  0  0
 39 43  1  0  0  0  0
 39 44  1  0  0  0  0
 39 38  1  0  0  0  0
 40 41  1  0  0  0  0
 40 39  1  0  0  0  0
 41 48  1  0  0  0  0
 41 42  1  0  0  0  0
 42 50  1  0  0  0  0
 42 38  1  0  0  0  0
 45 40  1  0  0  0  0
 46 40  1  0  0  0  0
 47 41  1  0  0  0  0
 49 42  1  0  0  0  0
M  END
>  <MODEL>
7

>  <REMARK>
 VINA RESULT:    -8.045      3.013      9.631
 INTER + INTRA:         -11.087
 INTER:                 -10.787
 INTRA:                  -0.299
 UNBOUND:                -0.690
  Name = 
  5 active torsions:
  status: ('A' for Active; 'I' for Inactive)
    1  A    between atoms: C_2  and  C_19
    2  A    between atoms: N_3  and  C_4
    3  A    between atoms: C_7  and  C_8
    4  A    between atoms: C_8  and  C_9
    5  A    between atoms: C_9  and  C_10
                            x       y       z     vdW  Elec       q    Type
                         _______ _______ _______ _____ _____    ______ ____

>  <TORSDO>
F 5

$$$$
=
 OpenBabel07192307433D

 50 53  0  0  0  0  0  0  0  0999 V2000
    2.4620    7.9210   18.5310 C   0  0  0  0  0  0  0  0  0  0  0  0
    1.8850    8.9120   17.7280 C   0  0  0  0  0  0  0  0  0  0  0  0
    0.8950    9.7580   18.2380 C   0  0  0  0  0  0  0  0  0  0  0  0
    0.4630    9.6280   19.5590 C   0  0  0  0  0  0  0  0  0  0  0  0
    1.0440    8.6400   20.3630 C   0  0  0  0  0  0  0  0  0  0  0  0
    2.0350    7.7930   19.8530 C   0  0  0  0  0  0  0  0  0  0  0  0
    2.1950    9.0470   16.6950 H   0  0  0  0  0  0  0  0  0  0  0  0
    0.4690   10.5260   17.5930 H   0  0  0  0  0  0  0  0  0  0  0  0
    0.7310    8.5170   21.3980 H   0  0  0  0  0  0  0  0  0  0  0  0
    2.4540    7.0460   20.5180 H   0  0  0  0  0  0  0  0  0  0  0  0
    2.5080    4.9840   17.9810 O   0  0  0  0  0  0  0  0  0  0  0  0
    3.4350    5.7500   17.7520 C   0  0  0  0  0  0  0  0  0  0  0  0
    3.4620    7.1190   17.9450 N   0  0  0  0  0  0  0  0  0  0  0  0
    4.2580    7.6180   17.5680 H   0  0  0  0  0  0  0  0  0  0  0  0
    4.6710    5.1890   17.1610 C   0  0  0  0  0  0  0  0  0  0  0  0
    4.6330    4.6320   15.8720 C   0  0  0  0  0  0  0  0  0  0  0  0
    5.7990    4.1120   15.2690 C   0  0  0  0  0  0  0  0  0  0  0  0
    7.0250    4.1270   15.9420 C   0  0  0  0  0  0  0  0  0  0  0  0
    7.0310    4.6580   17.2120 C   0  0  0  0  0  0  0  0  0  0  0  0
    8.0840    4.7660   18.1130 N   0  0  0  0  0  0  0  0  0  0  0  0
    7.6050    5.3200   19.3060 C   0  0  0  0  0  0  0  0  0  0  0  0
    8.2430    5.5270   20.3220 O   0  0  0  0  0  0  0  0  0  0  0  0
    6.2430    5.5840   19.1080 N   0  0  0  0  0  0  0  0  0  0  0  0
    5.8850    5.1740   17.8190 C   0  0  0  0  0  0  0  0  0  0  0  0
    3.6910    4.6040   15.3240 H   0  0  0  0  0  0  0  0  0  0  0  0
    5.7380    3.6910   14.2670 H   0  0  0  0  0  0  0  0  0  0  0  0
    7.9200    3.7230   15.4850 H   0  0  0  0  0  0  0  0  0  0  0  0
    9.0340    4.4570   17.9830 H   0  0  0  0  0  0  0  0  0  0  0  0
    5.6300    5.9100   19.8400 H   0  0  0  0  0  0  0  0  0  0  0  0
   -0.5900   10.5550   20.1220 C   0  0  0  0  0  0  0  0  0  0  0  0
   -0.9230   11.2550   19.3470 H   0  0  0  0  0  0  0  0  0  0  0  0
   -1.4730    9.9560   20.3770 H   0  0  0  0  0  0  0  0  0  0  0  0
   -0.1110   11.2900   21.3750 C   0  0  0  0  0  0  0  0  0  0  0  0
    0.8340   10.8410   21.7030 H   0  0  0  0  0  0  0  0  0  0  0  0
    0.0730   12.3450   21.1460 H   0  0  0  0  0  0  0  0  0  0  0  0
   -1.0750   11.1710   22.5460 C   0  0  0  0  0  0  0  0  0  0  0  0
   -0.9620   10.2980   23.4070 O   0  0  0  0  0  0  0  0  0  0  0  0
   -2.0570   12.1360   22.6210 N   0  0  0  0  0  0  0  0  0  0  0  0
   -3.0420   12.1280   23.6880 C   0  0  0  0  0  0  0  0  0  0  0  0
   -4.0920   13.1350   23.2400 C   0  0  0  0  0  0  0  0  0  0  0  0
   -3.2790   14.1340   22.4260 C   0  0  0  0  0  0  0  0  0  0  0  0
   -2.2710   13.2470   21.7090 C   0  0  0  0  0  0  0  0  0  0  0  0
   -3.4520   11.1250   23.8390 H   0  0  0  0  0  0  0  0  0  0  0  0
   -2.5430   12.4530   24.6080 H   0  0  0  0  0  0  0  0  0  0  0  0
   -4.6200   13.5950   24.0800 H   0  0  0  0  0  0  0  0  0  0  0  0
   -4.8300   12.6460   22.5940 H   0  0  0  0  0  0  0  0  0  0  0  0
   -3.8900   14.7230   21.7360 H   0  0  0  0  0  0  0  0  0  0  0  0
   -2.7590   14.8250   23.1000 H   0  0  0  0  0  0  0  0  0  0  0  0
   -2.6870   12.8450   20.7780 H   0  0  0  0  0  0  0  0  0  0  0  0
   -1.3330   13.7660   21.4910 H   0  0  0  0  0  0  0  0  0  0  0  0
  1  6  1  0  0  0  0
  2  3  1  0  0  0  0
  2  1  2  0  0  0  0
  3  4  2  0  0  0  0
  4 30  1  0  0  0  0
  4  5  1  0  0  0  0
  5  9  1  0  0  0  0
  6  5  2  0  0  0  0
  6 10  1  0  0  0  0
  7  2  1  0  0  0  0
  8  3  1  0  0  0  0
 12 13  1  0  0  0  0
 12 11  2  0  0  0  0
 13  1  1  0  0  0  0
 14 13  1  0  0  0  0
 15 12  1  0  0  0  0
 15 24  1  0  0  0  0
 16 15  2  0  0  0  0
 17 16  1  0  0  0  0
 17 18  2  0  0  0  0
 18 19  1  0  0  0  0
 19 24  2  0  0  0  0
 19 20  1  0  0  0  0
 20 21  1  0  0  0  0
 21 22  2  0  0  0  0
 23 21  1  0  0  0  0
 23 29  1  0  0  0  0
 24 23  1  0  0  0  0
 25 16  1  0  0  0  0
 26 17  1  0  0  0  0
 27 18  1  0  0  0  0
 28 20  1  0  0  0  0
 30 32  1  0  0  0  0
 30 33  1  0  0  0  0
 31 30  1  0  0  0  0
 33 34  1  0  0  0  0
 33 36  1  0  0  0  0
 35 33  1  0  0  0  0
 36 38  1  0  0  0  0
 36 37  2  0  0  0  0
 38 39  1  0  0  0  0
 39 43  1  0  0  0  0
 39 44  1  0  0  0  0
 40 39  1  0  0  0  0
 40 45  1  0  0  0  0
 41 48  1  0  0  0  0
 41 40  1  0  0  0  0
 42 41  1  0  0  0  0
 42 38  1  0  0  0  0
 46 40  1  0  0  0  0
 47 41  1  0  0  0  0
 49 42  1  0  0  0  0
 50 42  1  0  0  0  0
M  END
>  <MODEL>
8

>  <REMARK>
 VINA RESULT:    -8.043      2.805      4.081
 INTER + INTRA:         -11.083
 INTER:                 -10.463
 INTRA:                  -0.620
 UNBOUND:                -0.690
  Name = 
  5 active torsions:
  status: ('A' for Active; 'I' for Inactive)
    1  A    between atoms: C_2  and  C_19
    2  A    between atoms: N_3  and  C_4
    3  A    between atoms: C_7  and  C_8
    4  A    between atoms: C_8  and  C_9
    5  A    between atoms: C_9  and  C_10
                            x       y       z     vdW  Elec       q    Type
                         _______ _______ _______ _____ _____    ______ ____

>  <TORSDO>
F 5

$$$$
=
 OpenBabel07192307433D

 50 53  0  0  0  0  0  0  0  0999 V2000
    1.2310    8.6820   20.4580 C   0  0  0  0  0  0  0  0  0  0  0  0
    0.2340    9.4990   19.9130 C   0  0  0  0  0  0  0  0  0  0  0  0
   -0.5830   10.2780   20.7380 C   0  0  0  0  0  0  0  0  0  0  0  0
   -0.4190   10.2530   22.1250 C   0  0  0  0  0  0  0  0  0  0  0  0
    0.5810    9.4400   22.6700 C   0  0  0  0  0  0  0  0  0  0  0  0
    1.3990    8.6600   21.8430 C   0  0  0  0  0  0  0  0  0  0  0  0
    0.0750    9.5480   18.8380 H   0  0  0  0  0  0  0  0  0  0  0  0
   -1.3460   10.9100   20.2870 H   0  0  0  0  0  0  0  0  0  0  0  0
    0.7360    9.4020   23.7460 H   0  0  0  0  0  0  0  0  0  0  0  0
    2.1610    8.0490   22.3150 H   0  0  0  0  0  0  0  0  0  0  0  0
    1.9140    5.7720   20.4320 O   0  0  0  0  0  0  0  0  0  0  0  0
    2.3290    6.5930   19.6230 C   0  0  0  0  0  0  0  0  0  0  0  0
    2.0190    7.9380   19.5570 N   0  0  0  0  0  0  0  0  0  0  0  0
    2.3380    8.4410   18.7380 H   0  0  0  0  0  0  0  0  0  0  0  0
    3.2340    6.1170   18.5530 C   0  0  0  0  0  0  0  0  0  0  0  0
    3.8330    7.0480   17.6860 C   0  0  0  0  0  0  0  0  0  0  0  0
    4.7220    6.6300   16.6720 C   0  0  0  0  0  0  0  0  0  0  0  0
    5.0230    5.2760   16.4930 C   0  0  0  0  0  0  0  0  0  0  0  0
    4.4080    4.3840   17.3400 C   0  0  0  0  0  0  0  0  0  0  0  0
    4.4920    2.9960   17.3660 N   0  0  0  0  0  0  0  0  0  0  0  0
    3.6420    2.5090   18.3660 C   0  0  0  0  0  0  0  0  0  0  0  0
    3.4400    1.3420   18.6460 O   0  0  0  0  0  0  0  0  0  0  0  0
    3.0590    3.6270   18.9780 N   0  0  0  0  0  0  0  0  0  0  0  0
    3.5270    4.7840   18.3460 C   0  0  0  0  0  0  0  0  0  0  0  0
    3.6140    8.1090   17.8000 H   0  0  0  0  0  0  0  0  0  0  0  0
    5.1730    7.3750   16.0190 H   0  0  0  0  0  0  0  0  0  0  0  0
    5.7000    4.9510   15.7110 H   0  0  0  0  0  0  0  0  0  0  0  0
    5.0240    2.4040   16.7490 H   0  0  0  0  0  0  0  0  0  0  0  0
    2.3380    3.5610   19.6800 H   0  0  0  0  0  0  0  0  0  0  0  0
   -1.2840   11.1110   23.0200 C   0  0  0  0  0  0  0  0  0  0  0  0
   -2.0210   10.4850   23.5370 H   0  0  0  0  0  0  0  0  0  0  0  0
   -0.6480   11.5290   23.8110 H   0  0  0  0  0  0  0  0  0  0  0  0
   -1.9520   12.2580   22.2620 C   0  0  0  0  0  0  0  0  0  0  0  0
   -2.1660   11.9220   21.2390 H   0  0  0  0  0  0  0  0  0  0  0  0
   -2.9010   12.5230   22.7390 H   0  0  0  0  0  0  0  0  0  0  0  0
   -1.0690   13.4900   22.1350 C   0  0  0  0  0  0  0  0  0  0  0  0
   -0.6330   14.0920   23.1170 O   0  0  0  0  0  0  0  0  0  0  0  0
   -0.7360   13.8660   20.8510 N   0  0  0  0  0  0  0  0  0  0  0  0
    0.0960   15.0280   20.5980 C   0  0  0  0  0  0  0  0  0  0  0  0
   -0.0360   15.2670   19.1000 C   0  0  0  0  0  0  0  0  0  0  0  0
   -0.2570   13.8640   18.5500 C   0  0  0  0  0  0  0  0  0  0  0  0
   -1.1350   13.2170   19.6130 C   0  0  0  0  0  0  0  0  0  0  0  0
   -0.2310   15.8850   21.1950 H   0  0  0  0  0  0  0  0  0  0  0  0
    1.1250   14.7710   20.8730 H   0  0  0  0  0  0  0  0  0  0  0  0
    0.8410   15.7620   18.6740 H   0  0  0  0  0  0  0  0  0  0  0  0
   -0.9160   15.8880   18.8940 H   0  0  0  0  0  0  0  0  0  0  0  0
   -0.7210   13.8590   17.5590 H   0  0  0  0  0  0  0  0  0  0  0  0
    0.7020   13.3360   18.4840 H   0  0  0  0  0  0  0  0  0  0  0  0
   -2.1950   13.4390   19.4420 H   0  0  0  0  0  0  0  0  0  0  0  0
   -0.9980   12.1340   19.6710 H   0  0  0  0  0  0  0  0  0  0  0  0
  1  6  1  0  0  0  0
  2  1  2  0  0  0  0
  2  3  1  0  0  0  0
  3  4  2  0  0  0  0
  4  5  1  0  0  0  0
  4 30  1  0  0  0  0
  5  9  1  0  0  0  0
  6 10  1  0  0  0  0
  6  5  2  0  0  0  0
  7  2  1  0  0  0  0
  8  3  1  0  0  0  0
 12 11  2  0  0  0  0
 13 12  1  0  0  0  0
 13  1  1  0  0  0  0
 14 13  1  0  0  0  0
 15 12  1  0  0  0  0
 16 25  1  0  0  0  0
 16 15  2  0  0  0  0
 17 16  1  0  0  0  0
 18 17  2  0  0  0  0
 18 19  1  0  0  0  0
 19 20  1  0  0  0  0
 19 24  2  0  0  0  0
 20 21  1  0  0  0  0
 21 22  2  0  0  0  0
 21 23  1  0  0  0  0
 23 29  1  0  0  0  0
 24 15  1  0  0  0  0
 24 23  1  0  0  0  0
 26 17  1  0  0  0  0
 27 18  1  0  0  0  0
 28 20  1  0  0  0  0
 30 31  1  0  0  0  0
 30 32  1  0  0  0  0
 33 35  1  0  0  0  0
 33 30  1  0  0  0  0
 34 33  1  0  0  0  0
 36 33  1  0  0  0  0
 36 37  2  0  0  0  0
 38 36  1  0  0  0  0
 39 38  1  0  0  0  0
 39 44  1  0  0  0  0
 39 43  1  0  0  0  0
 40 39  1  0  0  0  0
 41 40  1  0  0  0  0
 41 42  1  0  0  0  0
 42 50  1  0  0  0  0
 42 38  1  0  0  0  0
 45 40  1  0  0  0  0
 46 40  1  0  0  0  0
 47 41  1  0  0  0  0
 48 41  1  0  0  0  0
 49 42  1  0  0  0  0
M  END
>  <MODEL>
9

>  <REMARK>
 VINA RESULT:    -8.009      2.442      3.347
 INTER + INTRA:         -11.039
 INTER:                 -10.354
 INTRA:                  -0.686
 UNBOUND:                -0.690
  Name = 
  5 active torsions:
  status: ('A' for Active; 'I' for Inactive)
    1  A    between atoms: C_2  and  C_19
    2  A    between atoms: N_3  and  C_4
    3  A    between atoms: C_7  and  C_8
    4  A    between atoms: C_8  and  C_9
    5  A    between atoms: C_9  and  C_10
                            x       y       z     vdW  Elec       q    Type
                         _______ _______ _______ _____ _____    ______ ____

>  <TORSDO>
F 5

$$$$
=
 OpenBabel07192307433D

 50 53  0  0  0  0  0  0  0  0999 V2000
    1.3390    8.9180   19.5290 C   0  0  0  0  0  0  0  0  0  0  0  0
    0.8780   10.0740   18.8890 C   0  0  0  0  0  0  0  0  0  0  0  0
    0.0440   10.9770   19.5560 C   0  0  0  0  0  0  0  0  0  0  0  0
   -0.3450   10.7390   20.8770 C   0  0  0  0  0  0  0  0  0  0  0  0
    0.1210    9.5860   21.5180 C   0  0  0  0  0  0  0  0  0  0  0  0
    0.9560    8.6820   20.8490 C   0  0  0  0  0  0  0  0  0  0  0  0
    1.1590   10.2960   17.8620 H   0  0  0  0  0  0  0  0  0  0  0  0
   -0.2950   11.8720   19.0370 H   0  0  0  0  0  0  0  0  0  0  0  0
   -0.1610    9.3750   22.5480 H   0  0  0  0  0  0  0  0  0  0  0  0
    1.2910    7.8050   21.3930 H   0  0  0  0  0  0  0  0  0  0  0  0
    2.1060    6.0680   20.0020 O   0  0  0  0  0  0  0  0  0  0  0  0
    2.5310    6.7610   19.0860 C   0  0  0  0  0  0  0  0  0  0  0  0
    2.1860    8.0670   18.7900 N   0  0  0  0  0  0  0  0  0  0  0  0
    2.5240    8.4420   17.9120 H   0  0  0  0  0  0  0  0  0  0  0  0
    3.4940    6.1510   18.1410 C   0  0  0  0  0  0  0  0  0  0  0  0
    4.2460    6.9760   17.2880 C   0  0  0  0  0  0  0  0  0  0  0  0
    5.1920    6.4290   16.3940 C   0  0  0  0  0  0  0  0  0  0  0  0
    5.3990    5.0470   16.3240 C   0  0  0  0  0  0  0  0  0  0  0  0
    4.6340    4.2600   17.1530 C   0  0  0  0  0  0  0  0  0  0  0  0
    4.6030    2.8750   17.2660 N   0  0  0  0  0  0  0  0  0  0  0  0
    3.6240    2.5180   18.2010 C   0  0  0  0  0  0  0  0  0  0  0  0
    3.3020    1.3900   18.5250 O   0  0  0  0  0  0  0  0  0  0  0  0
    3.0770    3.7140   18.6870 N   0  0  0  0  0  0  0  0  0  0  0  0
    3.6960    4.7900   18.0410 C   0  0  0  0  0  0  0  0  0  0  0  0
    4.1040    8.0560   17.3190 H   0  0  0  0  0  0  0  0  0  0  0  0
    5.7630    7.0940   15.7490 H   0  0  0  0  0  0  0  0  0  0  0  0
    6.1190    4.6230   15.6340 H   0  0  0  0  0  0  0  0  0  0  0  0
    5.1420    2.2060   16.7400 H   0  0  0  0  0  0  0  0  0  0  0  0
    2.2880    3.7470   19.3150 H   0  0  0  0  0  0  0  0  0  0  0  0
   -1.2270   11.7230   21.6110 C   0  0  0  0  0  0  0  0  0  0  0  0
   -2.0090   11.1850   22.1600 H   0  0  0  0  0  0  0  0  0  0  0  0
   -0.6190   12.2210   22.3770 H   0  0  0  0  0  0  0  0  0  0  0  0
   -1.8190   12.7830   20.6810 C   0  0  0  0  0  0  0  0  0  0  0  0
   -1.6520   13.7710   21.1270 H   0  0  0  0  0  0  0  0  0  0  0  0
   -1.3150   12.7570   19.7100 H   0  0  0  0  0  0  0  0  0  0  0  0
   -3.3220   12.6430   20.4920 C   0  0  0  0  0  0  0  0  0  0  0  0
   -4.1320   13.0420   21.3300 O   0  0  0  0  0  0  0  0  0  0  0  0
   -3.7320   12.0910   19.2970 N   0  0  0  0  0  0  0  0  0  0  0  0
   -5.1400   11.8980   19.0000 C   0  0  0  0  0  0  0  0  0  0  0  0
   -5.1470   11.0060   17.7670 C   0  0  0  0  0  0  0  0  0  0  0  0
   -3.8600   11.4010   17.0540 C   0  0  0  0  0  0  0  0  0  0  0  0
   -2.8910   11.6290   18.2060 C   0  0  0  0  0  0  0  0  0  0  0  0
   -5.6660   11.4530   19.8500 H   0  0  0  0  0  0  0  0  0  0  0  0
   -5.5750   12.8800   18.7850 H   0  0  0  0  0  0  0  0  0  0  0  0
   -6.0390   11.1450   17.1500 H   0  0  0  0  0  0  0  0  0  0  0  0
   -5.0960    9.9520   18.0650 H   0  0  0  0  0  0  0  0  0  0  0  0
   -3.5080   10.6410   16.3510 H   0  0  0  0  0  0  0  0  0  0  0  0
   -4.0140   12.3360   16.5020 H   0  0  0  0  0  0  0  0  0  0  0  0
   -2.4160   10.6920   18.5180 H   0  0  0  0  0  0  0  0  0  0  0  0
   -2.1160   12.3630   17.9660 H   0  0  0  0  0  0  0  0  0  0  0  0
  1  6  1  0  0  0  0
  2  1  2  0  0  0  0
  2  3  1  0  0  0  0
  3  4  2  0  0  0  0
  4  5  1  0  0  0  0
  4 30  1  0  0  0  0
  5  9  1  0  0  0  0
  6 10  1  0  0  0  0
  6  5  2  0  0  0  0
  7  2  1  0  0  0  0
  8  3  1  0  0  0  0
 12 11  2  0  0  0  0
 13 12  1  0  0  0  0
 13  1  1  0  0  0  0
 14 13  1  0  0  0  0
 15 12  1  0  0  0  0
 16 25  1  0  0  0  0
 16 15  2  0  0  0  0
 17 16  1  0  0  0  0
 18 17  2  0  0  0  0
 18 19  1  0  0  0  0
 19 20  1  0  0  0  0
 19 24  2  0  0  0  0
 20 21  1  0  0  0  0
 21 22  2  0  0  0  0
 21 23  1  0  0  0  0
 23 29  1  0  0  0  0
 24 15  1  0  0  0  0
 24 23  1  0  0  0  0
 26 17  1  0  0  0  0
 27 18  1  0  0  0  0
 28 20  1  0  0  0  0
 30 31  1  0  0  0  0
 30 32  1  0  0  0  0
 33 34  1  0  0  0  0
 33 30  1  0  0  0  0
 35 33  1  0  0  0  0
 36 33  1  0  0  0  0
 36 37  2  0  0  0  0
 38 36  1  0  0  0  0
 39 38  1  0  0  0  0
 39 43  1  0  0  0  0
 40 46  1  0  0  0  0
 40 39  1  0  0  0  0
 41 40  1  0  0  0  0
 41 42  1  0  0  0  0
 42 49  1  0  0  0  0
 42 38  1  0  0  0  0
 44 39  1  0  0  0  0
 45 40  1  0  0  0  0
 47 41  1  0  0  0  0
 48 41  1  0  0  0  0
 50 42  1  0  0  0  0
M  END
>  <MODEL>
10

>  <REMARK>
 VINA RESULT:    -7.996      1.823      2.676
 INTER + INTRA:         -11.024
 INTER:                 -10.504
 INTRA:                  -0.520
 UNBOUND:                -0.690
  Name = 
  5 active torsions:
  status: ('A' for Active; 'I' for Inactive)
    1  A    between atoms: C_2  and  C_19
    2  A    between atoms: N_3  and  C_4
    3  A    between atoms: C_7  and  C_8
    4  A    between atoms: C_8  and  C_9
    5  A    between atoms: C_9  and  C_10
                            x       y       z     vdW  Elec       q    Type
                         _______ _______ _______ _____ _____    ______ ____

>  <TORSDO>
F 5

$$$$
=
 OpenBabel07192307433D

 50 53  0  0  0  0  0  0  0  0999 V2000
    1.5480    9.3700   17.9430 C   0  0  0  0  0  0  0  0  0  0  0  0
    2.1790   10.5940   18.1940 C   0  0  0  0  0  0  0  0  0  0  0  0
    1.4450   11.7000   18.6330 C   0  0  0  0  0  0  0  0  0  0  0  0
    0.0650   11.6030   18.8290 C   0  0  0  0  0  0  0  0  0  0  0  0
   -0.5650   10.3770   18.5830 C   0  0  0  0  0  0  0  0  0  0  0  0
    0.1710    9.2700   18.1420 C   0  0  0  0  0  0  0  0  0  0  0  0
    3.2510   10.7110   18.0560 H   0  0  0  0  0  0  0  0  0  0  0  0
    1.9620   12.6390   18.8280 H   0  0  0  0  0  0  0  0  0  0  0  0
   -1.6370   10.2690   18.7300 H   0  0  0  0  0  0  0  0  0  0  0  0
   -0.3650    8.3430   17.9690 H   0  0  0  0  0  0  0  0  0  0  0  0
    2.5100    6.9580   19.4220 O   0  0  0  0  0  0  0  0  0  0  0  0
    2.8050    7.2290   18.2650 C   0  0  0  0  0  0  0  0  0  0  0  0
    2.3620    8.3020   17.5140 N   0  0  0  0  0  0  0  0  0  0  0  0
    2.5920    8.2960   16.5280 H   0  0  0  0  0  0  0  0  0  0  0  0
    3.7010    6.3000   17.5400 C   0  0  0  0  0  0  0  0  0  0  0  0
    4.6210    6.8100   16.6070 C   0  0  0  0  0  0  0  0  0  0  0  0
    5.5080    5.9550   15.9180 C   0  0  0  0  0  0  0  0  0  0  0  0
    5.4890    4.5730   16.1360 C   0  0  0  0  0  0  0  0  0  0  0  0
    4.5650    4.0970   17.0380 C   0  0  0  0  0  0  0  0  0  0  0  0
    4.3020    2.7860   17.4160 N   0  0  0  0  0  0  0  0  0  0  0  0
    3.2320    2.7800   18.3190 C   0  0  0  0  0  0  0  0  0  0  0  0
    2.7140    1.8040   18.8290 O   0  0  0  0  0  0  0  0  0  0  0  0
    2.8650    4.1180   18.5150 N   0  0  0  0  0  0  0  0  0  0  0  0
    3.6820    4.9330   17.7250 C   0  0  0  0  0  0  0  0  0  0  0  0
    4.6560    7.8820   16.4150 H   0  0  0  0  0  0  0  0  0  0  0  0
    6.2110    6.3800   15.2050 H   0  0  0  0  0  0  0  0  0  0  0  0
    6.1640    3.9130   15.6040 H   0  0  0  0  0  0  0  0  0  0  0  0
    4.7510    1.9500   17.0770 H   0  0  0  0  0  0  0  0  0  0  0  0
    2.0610    4.3980   19.0570 H   0  0  0  0  0  0  0  0  0  0  0  0
   -0.7300   12.7880   19.3270 C   0  0  0  0  0  0  0  0  0  0  0  0
   -0.0900   13.4360   19.9380 H   0  0  0  0  0  0  0  0  0  0  0  0
   -1.0190   13.3950   18.4590 H   0  0  0  0  0  0  0  0  0  0  0  0
   -1.9920   12.3690   20.0820 C   0  0  0  0  0  0  0  0  0  0  0  0
   -2.7920   13.0830   19.8470 H   0  0  0  0  0  0  0  0  0  0  0  0
   -2.3140   11.3750   19.7550 H   0  0  0  0  0  0  0  0  0  0  0  0
   -1.8240   12.3930   21.5930 C   0  0  0  0  0  0  0  0  0  0  0  0
   -0.7220   12.3000   22.1350 O   0  0  0  0  0  0  0  0  0  0  0  0
   -2.9760   12.5800   22.3270 N   0  0  0  0  0  0  0  0  0  0  0  0
   -2.9480   12.6140   23.7780 C   0  0  0  0  0  0  0  0  0  0  0  0
   -4.4120   12.5240   24.1860 C   0  0  0  0  0  0  0  0  0  0  0  0
   -5.1300   13.2070   23.0280 C   0  0  0  0  0  0  0  0  0  0  0  0
   -4.3260   12.7550   21.8170 C   0  0  0  0  0  0  0  0  0  0  0  0
   -2.3440   11.7960   24.1810 H   0  0  0  0  0  0  0  0  0  0  0  0
   -2.5060   13.5690   24.0830 H   0  0  0  0  0  0  0  0  0  0  0  0
   -4.6100   12.9970   25.1520 H   0  0  0  0  0  0  0  0  0  0  0  0
   -4.7220   11.4750   24.2460 H   0  0  0  0  0  0  0  0  0  0  0  0
   -6.1870   12.9340   22.9590 H   0  0  0  0  0  0  0  0  0  0  0  0
   -5.0610   14.2950   23.1400 H   0  0  0  0  0  0  0  0  0  0  0  0
   -4.6760   11.7840   21.4470 H   0  0  0  0  0  0  0  0  0  0  0  0
   -4.3490   13.4820   21.0010 H   0  0  0  0  0  0  0  0  0  0  0  0
  1  6  2  0  0  0  0
  1  2  1  0  0  0  0
  2  3  2  0  0  0  0
  3  8  1  0  0  0  0
  3  4  1  0  0  0  0
  4 30  1  0  0  0  0
  5  9  1  0  0  0  0
  5  4  2  0  0  0  0
  6  5  1  0  0  0  0
  7  2  1  0  0  0  0
 10  6  1  0  0  0  0
 12 11  2  0  0  0  0
 13  1  1  0  0  0  0
 13 12  1  0  0  0  0
 14 13  1  0  0  0  0
 15 24  1  0  0  0  0
 15 12  1  0  0  0  0
 16 15  2  0  0  0  0
 17 18  2  0  0  0  0
 17 16  1  0  0  0  0
 18 19  1  0  0  0  0
 19 20  1  0  0  0  0
 19 24  2  0  0  0  0
 20 21  1  0  0  0  0
 21 23  1  0  0  0  0
 21 22  2  0  0  0  0
 23 29  1  0  0  0  0
 24 23  1  0  0  0  0
 25 16  1  0  0  0  0
 26 17  1  0  0  0  0
 27 18  1  0  0  0  0
 28 20  1  0  0  0  0
 30 31  1  0  0  0  0
 30 33  1  0  0  0  0
 32 30  1  0  0  0  0
 33 36  1  0  0  0  0
 34 33  1  0  0  0  0
 35 33  1  0  0  0  0
 36 37  2  0  0  0  0
 36 38  1  0  0  0  0
 38 39  1  0  0  0  0
 39 44  1  0  0  0  0
 39 43  1  0  0  0  0
 39 40  1  0  0  0  0
 40 46  1  0  0  0  0
 40 45  1  0  0  0  0
 41 48  1  0  0  0  0
 41 40  1  0  0  0  0
 42 38  1  0  0  0  0
 42 41  1  0  0  0  0
 47 41  1  0  0  0  0
 49 42  1  0  0  0  0
 50 42  1  0  0  0  0
M  END
>  <MODEL>
11

>  <REMARK>
 VINA RESULT:    -7.993      2.676      4.022
 INTER + INTRA:         -11.020
 INTER:                 -10.052
 INTRA:                  -0.968
 UNBOUND:                -0.690
  Name = 
  5 active torsions:
  status: ('A' for Active; 'I' for Inactive)
    1  A    between atoms: C_2  and  C_19
    2  A    between atoms: N_3  and  C_4
    3  A    between atoms: C_7  and  C_8
    4  A    between atoms: C_8  and  C_9
    5  A    between atoms: C_9  and  C_10
                            x       y       z     vdW  Elec       q    Type
                         _______ _______ _______ _____ _____    ______ ____

>  <TORSDO>
F 5

$$$$
=
 OpenBabel07192307433D

 50 53  0  0  0  0  0  0  0  0999 V2000
    1.3180    9.6520   18.1560 C   0  0  0  0  0  0  0  0  0  0  0  0
   -0.0810    9.6340   18.1030 C   0  0  0  0  0  0  0  0  0  0  0  0
   -0.8240   10.7740   18.4260 C   0  0  0  0  0  0  0  0  0  0  0  0
   -0.1810   11.9540   18.8090 C   0  0  0  0  0  0  0  0  0  0  0  0
    1.2180   11.9730   18.8580 C   0  0  0  0  0  0  0  0  0  0  0  0
    1.9610   10.8310   18.5350 C   0  0  0  0  0  0  0  0  0  0  0  0
   -0.6190    8.7370   17.8080 H   0  0  0  0  0  0  0  0  0  0  0  0
   -1.9100   10.7350   18.3690 H   0  0  0  0  0  0  0  0  0  0  0  0
    1.7470   12.8780   19.1480 H   0  0  0  0  0  0  0  0  0  0  0  0
    3.0420   10.8990   18.5850 H   0  0  0  0  0  0  0  0  0  0  0  0
    2.1410    7.3230   19.8400 O   0  0  0  0  0  0  0  0  0  0  0  0
    2.3780    7.4370   18.6440 C   0  0  0  0  0  0  0  0  0  0  0  0
    1.9910    8.4650   17.8040 N   0  0  0  0  0  0  0  0  0  0  0  0
    2.1490    8.3300   16.8130 H   0  0  0  0  0  0  0  0  0  0  0  0
    3.1260    6.3480   17.9760 C   0  0  0  0  0  0  0  0  0  0  0  0
    4.2740    6.6530   17.2250 C   0  0  0  0  0  0  0  0  0  0  0  0
    5.0250    5.6350   16.5980 C   0  0  0  0  0  0  0  0  0  0  0  0
    4.6410    4.2930   16.6980 C   0  0  0  0  0  0  0  0  0  0  0  0
    3.5020    4.0230   17.4210 C   0  0  0  0  0  0  0  0  0  0  0  0
    2.8770    2.8030   17.6510 N   0  0  0  0  0  0  0  0  0  0  0  0
    1.7110    3.0240   18.3930 C   0  0  0  0  0  0  0  0  0  0  0  0
    0.9010    2.1870   18.7460 O   0  0  0  0  0  0  0  0  0  0  0  0
    1.6500    4.4020   18.6450 N   0  0  0  0  0  0  0  0  0  0  0  0
    2.7510    5.0210   18.0450 C   0  0  0  0  0  0  0  0  0  0  0  0
    4.5940    7.6900   17.1280 H   0  0  0  0  0  0  0  0  0  0  0  0
    5.9110    5.9020   16.0260 H   0  0  0  0  0  0  0  0  0  0  0  0
    5.2120    3.5100   16.2130 H   0  0  0  0  0  0  0  0  0  0  0  0
    3.1580    1.8980   17.3100 H   0  0  0  0  0  0  0  0  0  0  0  0
    0.8630    4.8490   19.0920 H   0  0  0  0  0  0  0  0  0  0  0  0
   -0.9780   13.1960   19.1360 C   0  0  0  0  0  0  0  0  0  0  0  0
   -0.3790   14.0900   18.9220 H   0  0  0  0  0  0  0  0  0  0  0  0
   -1.8330   13.2440   18.4510 H   0  0  0  0  0  0  0  0  0  0  0  0
   -1.4940   13.1960   20.5760 C   0  0  0  0  0  0  0  0  0  0  0  0
   -0.9660   12.4150   21.1360 H   0  0  0  0  0  0  0  0  0  0  0  0
   -1.2820   14.1590   21.0520 H   0  0  0  0  0  0  0  0  0  0  0  0
   -2.9770   12.8760   20.6820 C   0  0  0  0  0  0  0  0  0  0  0  0
   -3.6580   12.5740   19.7020 O   0  0  0  0  0  0  0  0  0  0  0  0
   -3.5080   12.8900   21.9540 N   0  0  0  0  0  0  0  0  0  0  0  0
   -4.9130   12.6070   22.1870 C   0  0  0  0  0  0  0  0  0  0  0  0
   -5.1470   13.0220   23.6330 C   0  0  0  0  0  0  0  0  0  0  0  0
   -3.7940   12.7640   24.2840 C   0  0  0  0  0  0  0  0  0  0  0  0
   -2.8100   13.1750   23.1970 C   0  0  0  0  0  0  0  0  0  0  0  0
   -5.5480   13.1520   21.4810 H   0  0  0  0  0  0  0  0  0  0  0  0
   -5.0670   11.5310   22.0500 H   0  0  0  0  0  0  0  0  0  0  0  0
   -5.9630   12.4670   24.1040 H   0  0  0  0  0  0  0  0  0  0  0  0
   -5.3830   14.0910   23.6840 H   0  0  0  0  0  0  0  0  0  0  0  0
   -3.6520   13.3210   25.2140 H   0  0  0  0  0  0  0  0  0  0  0  0
   -3.6860   11.6950   24.5020 H   0  0  0  0  0  0  0  0  0  0  0  0
   -2.6080   14.2520   23.2310 H   0  0  0  0  0  0  0  0  0  0  0  0
   -1.8650   12.6280   23.2540 H   0  0  0  0  0  0  0  0  0  0  0  0
  1  6  1  0  0  0  0
  2  1  2  0  0  0  0
  2  3  1  0  0  0  0
  3  4  2  0  0  0  0
  4  5  1  0  0  0  0
  4 30  1  0  0  0  0
  5  9  1  0  0  0  0
  6 10  1  0  0  0  0
  6  5  2  0  0  0  0
  7  2  1  0  0  0  0
  8  3  1  0  0  0  0
 12 11  2  0  0  0  0
 13  1  1  0  0  0  0
 13 12  1  0  0  0  0
 14 13  1  0  0  0  0
 15 24  1  0  0  0  0
 15 12  1  0  0  0  0
 16 15  2  0  0  0  0
 17 18  2  0  0  0  0
 17 16  1  0  0  0  0
 18 19  1  0  0  0  0
 19 20  1  0  0  0  0
 19 24  2  0  0  0  0
 20 21  1  0  0  0  0
 21 23  1  0  0  0  0
 21 22  2  0  0  0  0
 23 29  1  0  0  0  0
 24 23  1  0  0  0  0
 25 16  1  0  0  0  0
 26 17  1  0  0  0  0
 27 18  1  0  0  0  0
 28 20  1  0  0  0  0
 30 33  1  0  0  0  0
 31 30  1  0  0  0  0
 32 30  1  0  0  0  0
 33 36  1  0  0  0  0
 33 35  1  0  0  0  0
 33 34  1  0  0  0  0
 36 38  1  0  0  0  0
 37 36  2  0  0  0  0
 38 39  1  0  0  0  0
 38 42  1  0  0  0  0
 39 40  1  0  0  0  0
 40 46  1  0  0  0  0
 40 45  1  0  0  0  0
 40 41  1  0  0  0  0
 41 48  1  0  0  0  0
 41 47  1  0  0  0  0
 42 49  1  0  0  0  0
 42 50  1  0  0  0  0
 42 41  1  0  0  0  0
 43 39  1  0  0  0  0
 44 39  1  0  0  0  0
M  END
>  <MODEL>
12

>  <REMARK>
 VINA RESULT:    -7.970      2.714      3.922
 INTER + INTRA:         -10.990
 INTER:                 -10.026
 INTRA:                  -0.964
 UNBOUND:                -0.690
  Name = 
  5 active torsions:
  status: ('A' for Active; 'I' for Inactive)
    1  A    between atoms: C_2  and  C_19
    2  A    between atoms: N_3  and  C_4
    3  A    between atoms: C_7  and  C_8
    4  A    between atoms: C_8  and  C_9
    5  A    between atoms: C_9  and  C_10
                            x       y       z     vdW  Elec       q    Type
                         _______ _______ _______ _____ _____    ______ ____

>  <TORSDO>
F 5

$$$$
=
 OpenBabel07192307433D

 50 53  0  0  0  0  0  0  0  0999 V2000
    2.6140    7.6710   17.8590 C   0  0  0  0  0  0  0  0  0  0  0  0
    1.9160    6.4600   17.9380 C   0  0  0  0  0  0  0  0  0  0  0  0
    2.5700    5.2430   17.7260 C   0  0  0  0  0  0  0  0  0  0  0  0
    3.9340    5.2130   17.4300 C   0  0  0  0  0  0  0  0  0  0  0  0
    4.6330    6.4230   17.3550 C   0  0  0  0  0  0  0  0  0  0  0  0
    3.9780    7.6420   17.5680 C   0  0  0  0  0  0  0  0  0  0  0  0
    0.8530    6.4400   18.1680 H   0  0  0  0  0  0  0  0  0  0  0  0
    2.0040    4.3150   17.8010 H   0  0  0  0  0  0  0  0  0  0  0  0
    5.6980    6.4320   17.1300 H   0  0  0  0  0  0  0  0  0  0  0  0
    4.5660    8.5520   17.5010 H   0  0  0  0  0  0  0  0  0  0  0  0
    1.2400    8.6280   20.3350 O   0  0  0  0  0  0  0  0  0  0  0  0
    1.2370    9.2200   19.2630 C   0  0  0  0  0  0  0  0  0  0  0  0
    1.8840    8.8530   18.0980 N   0  0  0  0  0  0  0  0  0  0  0  0
    1.8920    9.5310   17.3460 H   0  0  0  0  0  0  0  0  0  0  0  0
    0.5010   10.5020   19.1790 C   0  0  0  0  0  0  0  0  0  0  0  0
    0.8370   11.5530   20.0490 C   0  0  0  0  0  0  0  0  0  0  0  0
    0.1740   12.7970   19.9790 C   0  0  0  0  0  0  0  0  0  0  0  0
   -0.8460   13.0160   19.0460 C   0  0  0  0  0  0  0  0  0  0  0  0
   -1.1710   11.9640   18.2200 C   0  0  0  0  0  0  0  0  0  0  0  0
   -2.1540   11.8890   17.2410 N   0  0  0  0  0  0  0  0  0  0  0  0
   -2.1560   10.5980   16.6990 C   0  0  0  0  0  0  0  0  0  0  0  0
   -2.9070   10.1670   15.8430 O   0  0  0  0  0  0  0  0  0  0  0  0
   -1.1300    9.8910   17.3410 N   0  0  0  0  0  0  0  0  0  0  0  0
   -0.5220   10.7290   18.2810 C   0  0  0  0  0  0  0  0  0  0  0  0
    1.6260   11.4100   20.7880 H   0  0  0  0  0  0  0  0  0  0  0  0
    0.4600   13.5930   20.6630 H   0  0  0  0  0  0  0  0  0  0  0  0
   -1.3610   13.9670   18.9930 H   0  0  0  0  0  0  0  0  0  0  0  0
   -2.8100   12.6060   16.9760 H   0  0  0  0  0  0  0  0  0  0  0  0
   -0.9650    8.9060   17.2010 H   0  0  0  0  0  0  0  0  0  0  0  0
    4.6510    3.8980   17.2230 C   0  0  0  0  0  0  0  0  0  0  0  0
    4.8750    3.7590   16.1590 H   0  0  0  0  0  0  0  0  0  0  0  0
    5.6260    3.9580   17.7240 H   0  0  0  0  0  0  0  0  0  0  0  0
    3.8730    2.7130   17.7940 C   0  0  0  0  0  0  0  0  0  0  0  0
    2.8080    2.8550   17.5710 H   0  0  0  0  0  0  0  0  0  0  0  0
    4.2000    1.7820   17.3180 H   0  0  0  0  0  0  0  0  0  0  0  0
    3.9840    2.5920   19.3060 C   0  0  0  0  0  0  0  0  0  0  0  0
    5.0640    2.4420   19.8780 O   0  0  0  0  0  0  0  0  0  0  0  0
    2.8060    2.7170   20.0110 N   0  0  0  0  0  0  0  0  0  0  0  0
    2.7790    2.6140   21.4590 C   0  0  0  0  0  0  0  0  0  0  0  0
    1.3000    2.4960   21.8020 C   0  0  0  0  0  0  0  0  0  0  0  0
    0.6290    3.2890   20.6880 C   0  0  0  0  0  0  0  0  0  0  0  0
    1.4770    2.9490   19.4700 C   0  0  0  0  0  0  0  0  0  0  0  0
    3.3650    1.7570   21.8050 H   0  0  0  0  0  0  0  0  0  0  0  0
    3.2120    3.5330   21.8690 H   0  0  0  0  0  0  0  0  0  0  0  0
    1.0680    2.8770   22.8000 H   0  0  0  0  0  0  0  0  0  0  0  0
    0.9850    1.4470   21.7500 H   0  0  0  0  0  0  0  0  0  0  0  0
   -0.4260    3.0320   20.5530 H   0  0  0  0  0  0  0  0  0  0  0  0
    0.6970    4.3620   20.9040 H   0  0  0  0  0  0  0  0  0  0  0  0
    1.1380    2.0200   18.9970 H   0  0  0  0  0  0  0  0  0  0  0  0
    1.4870    3.7500   18.7260 H   0  0  0  0  0  0  0  0  0  0  0  0
  1  2  1  0  0  0  0
  1 13  1  0  0  0  0
  2  7  1  0  0  0  0
  3  8  1  0  0  0  0
  3  2  2  0  0  0  0
  4  3  1  0  0  0  0
  5  4  2  0  0  0  0
  5  6  1  0  0  0  0
  6  1  2  0  0  0  0
  9  5  1  0  0  0  0
 10  6  1  0  0  0  0
 12 11  2  0  0  0  0
 13 12  1  0  0  0  0
 14 13  1  0  0  0  0
 15 12  1  0  0  0  0
 15 16  1  0  0  0  0
 16 25  1  0  0  0  0
 17 16  2  0  0  0  0
 17 26  1  0  0  0  0
 18 17  1  0  0  0  0
 19 24  1  0  0  0  0
 19 18  2  0  0  0  0
 20 19  1  0  0  0  0
 21 20  1  0  0  0  0
 21 23  1  0  0  0  0
 22 21  2  0  0  0  0
 23 24  1  0  0  0  0
 24 15  2  0  0  0  0
 27 18  1  0  0  0  0
 28 20  1  0  0  0  0
 29 23  1  0  0  0  0
 30  4  1  0  0  0  0
 30 32  1  0  0  0  0
 30 33  1  0  0  0  0
 31 30  1  0  0  0  0
 33 36  1  0  0  0  0
 34 33  1  0  0  0  0
 35 33  1  0  0  0  0
 36 37  2  0  0  0  0
 36 38  1  0  0  0  0
 38 39  1  0  0  0  0
 39 40  1  0  0  0  0
 39 43  1  0  0  0  0
 39 44  1  0  0  0  0
 40 45  1  0  0  0  0
 41 48  1  0  0  0  0
 41 40  1  0  0  0  0
 42 38  1  0  0  0  0
 42 41  1  0  0  0  0
 46 40  1  0  0  0  0
 47 41  1  0  0  0  0
 49 42  1  0  0  0  0
 50 42  1  0  0  0  0
M  END
>  <MODEL>
13

>  <REMARK>
 VINA RESULT:    -7.963      2.341      9.012
 INTER + INTRA:         -10.980
 INTER:                 -10.684
 INTRA:                  -0.296
 UNBOUND:                -0.690
  Name = 
  5 active torsions:
  status: ('A' for Active; 'I' for Inactive)
    1  A    between atoms: C_2  and  C_19
    2  A    between atoms: N_3  and  C_4
    3  A    between atoms: C_7  and  C_8
    4  A    between atoms: C_8  and  C_9
    5  A    between atoms: C_9  and  C_10
                            x       y       z     vdW  Elec       q    Type
                         _______ _______ _______ _____ _____    ______ ____

>  <TORSDO>
F 5

$$$$
=
 OpenBabel07192307433D

 50 53  0  0  0  0  0  0  0  0999 V2000
    1.3460    8.5200   19.9480 C   0  0  0  0  0  0  0  0  0  0  0  0
    0.8090    8.5290   21.2400 C   0  0  0  0  0  0  0  0  0  0  0  0
    0.1950    9.6760   21.7520 C   0  0  0  0  0  0  0  0  0  0  0  0
    0.1070   10.8370   20.9800 C   0  0  0  0  0  0  0  0  0  0  0  0
    0.6400   10.8270   19.6850 C   0  0  0  0  0  0  0  0  0  0  0  0
    1.2550    9.6770   19.1740 C   0  0  0  0  0  0  0  0  0  0  0  0
    0.8550    7.6460   21.8720 H   0  0  0  0  0  0  0  0  0  0  0  0
   -0.2210    9.6540   22.7580 H   0  0  0  0  0  0  0  0  0  0  0  0
    0.5830   11.7140   19.0590 H   0  0  0  0  0  0  0  0  0  0  0  0
    1.6490    9.7210   18.1640 H   0  0  0  0  0  0  0  0  0  0  0  0
    3.0860    7.9820   17.5780 O   0  0  0  0  0  0  0  0  0  0  0  0
    2.7050    7.1300   18.3710 C   0  0  0  0  0  0  0  0  0  0  0  0
    1.9370    7.3200   19.5040 N   0  0  0  0  0  0  0  0  0  0  0  0
    1.8340    6.5270   20.1250 H   0  0  0  0  0  0  0  0  0  0  0  0
    3.1320    5.7300   18.1460 C   0  0  0  0  0  0  0  0  0  0  0  0
    2.1660    4.7410   17.8980 C   0  0  0  0  0  0  0  0  0  0  0  0
    2.5410    3.4020   17.6530 C   0  0  0  0  0  0  0  0  0  0  0  0
    3.8870    3.0200   17.6610 C   0  0  0  0  0  0  0  0  0  0  0  0
    4.8120    4.0030   17.9270 C   0  0  0  0  0  0  0  0  0  0  0  0
    6.1940    3.9020   18.0340 N   0  0  0  0  0  0  0  0  0  0  0  0
    6.7150    5.1550   18.3770 C   0  0  0  0  0  0  0  0  0  0  0  0
    7.8830    5.4270   18.5840 O   0  0  0  0  0  0  0  0  0  0  0  0
    5.6280    6.0370   18.4450 N   0  0  0  0  0  0  0  0  0  0  0  0
    4.4530    5.3300   18.1710 C   0  0  0  0  0  0  0  0  0  0  0  0
    1.1100    5.0090   17.8890 H   0  0  0  0  0  0  0  0  0  0  0  0
    1.7700    2.6590   17.4610 H   0  0  0  0  0  0  0  0  0  0  0  0
    4.1780    1.9920   17.4800 H   0  0  0  0  0  0  0  0  0  0  0  0
    6.7560    3.0710   17.9400 H   0  0  0  0  0  0  0  0  0  0  0  0
    5.7100    6.9930   18.7570 H   0  0  0  0  0  0  0  0  0  0  0  0
   -0.5760   12.0730   21.5190 C   0  0  0  0  0  0  0  0  0  0  0  0
   -1.3080   11.7900   22.2850 H   0  0  0  0  0  0  0  0  0  0  0  0
    0.1760   12.6810   22.0390 H   0  0  0  0  0  0  0  0  0  0  0  0
   -1.2160   12.9150   20.4140 C   0  0  0  0  0  0  0  0  0  0  0  0
   -1.1660   13.9710   20.7070 H   0  0  0  0  0  0  0  0  0  0  0  0
   -0.6600   12.7940   19.4780 H   0  0  0  0  0  0  0  0  0  0  0  0
   -2.6870   12.5980   20.1920 C   0  0  0  0  0  0  0  0  0  0  0  0
   -3.5570   12.8970   21.0110 O   0  0  0  0  0  0  0  0  0  0  0  0
   -3.0020   12.0000   18.9900 N   0  0  0  0  0  0  0  0  0  0  0  0
   -4.3700   11.6410   18.6620 C   0  0  0  0  0  0  0  0  0  0  0  0
   -4.2420   10.7540   17.4320 C   0  0  0  0  0  0  0  0  0  0  0  0
   -2.9960   11.2990   16.7460 C   0  0  0  0  0  0  0  0  0  0  0  0
   -2.0870   11.6420   17.9190 C   0  0  0  0  0  0  0  0  0  0  0  0
   -4.8580   11.1360   19.5020 H   0  0  0  0  0  0  0  0  0  0  0  0
   -4.9140   12.5640   18.4350 H   0  0  0  0  0  0  0  0  0  0  0  0
   -5.1310   10.7860   16.7960 H   0  0  0  0  0  0  0  0  0  0  0  0
   -4.0730    9.7140   17.7340 H   0  0  0  0  0  0  0  0  0  0  0  0
   -2.5410   10.5860   16.0530 H   0  0  0  0  0  0  0  0  0  0  0  0
   -3.2480   12.2090   16.1890 H   0  0  0  0  0  0  0  0  0  0  0  0
   -1.5110   10.7680   18.2440 H   0  0  0  0  0  0  0  0  0  0  0  0
   -1.4010   12.4630   17.6940 H   0  0  0  0  0  0  0  0  0  0  0  0
  1  2  1  0  0  0  0
  2  3  2  0  0  0  0
  2  7  1  0  0  0  0
  3  8  1  0  0  0  0
  4 30  1  0  0  0  0
  4  3  1  0  0  0  0
  5  4  2  0  0  0  0
  6  5  1  0  0  0  0
  6  1  2  0  0  0  0
  9  5  1  0  0  0  0
 10  6  1  0  0  0  0
 11 12  2  0  0  0  0
 12 13  1  0  0  0  0
 13  1  1  0  0  0  0
 13 14  1  0  0  0  0
 15 24  1  0  0  0  0
 15 12  1  0  0  0  0
 16 15  2  0  0  0  0
 17 18  2  0  0  0  0
 17 16  1  0  0  0  0
 18 19  1  0  0  0  0
 19 20  1  0  0  0  0
 19 24  2  0  0  0  0
 20 21  1  0  0  0  0
 21 23  1  0  0  0  0
 21 22  2  0  0  0  0
 23 29  1  0  0  0  0
 24 23  1  0  0  0  0
 25 16  1  0  0  0  0
 26 17  1  0  0  0  0
 27 18  1  0  0  0  0
 28 20  1  0  0  0  0
 30 32  1  0  0  0  0
 30 31  1  0  0  0  0
 33 34  1  0  0  0  0
 33 30  1  0  0  0  0
 35 33  1  0  0  0  0
 36 33  1  0  0  0  0
 36 37  2  0  0  0  0
 38 36  1  0  0  0  0
 39 38  1  0  0  0  0
 39 43  1  0  0  0  0
 40 46  1  0  0  0  0
 40 39  1  0  0  0  0
 41 40  1  0  0  0  0
 41 42  1  0  0  0  0
 42 49  1  0  0  0  0
 42 38  1  0  0  0  0
 44 39  1  0  0  0  0
 45 40  1  0  0  0  0
 47 41  1  0  0  0  0
 48 41  1  0  0  0  0
 50 42  1  0  0  0  0
M  END
>  <MODEL>
14

>  <REMARK>
 VINA RESULT:    -7.961      1.446      1.468
 INTER + INTRA:         -10.978
 INTER:                 -10.419
 INTRA:                  -0.558
 UNBOUND:                -0.690
  Name = 
  5 active torsions:
  status: ('A' for Active; 'I' for Inactive)
    1  A    between atoms: C_2  and  C_19
    2  A    between atoms: N_3  and  C_4
    3  A    between atoms: C_7  and  C_8
    4  A    between atoms: C_8  and  C_9
    5  A    between atoms: C_9  and  C_10
                            x       y       z     vdW  Elec       q    Type
                         _______ _______ _______ _____ _____    ______ ____

>  <TORSDO>
F 5

$$$$
=
 OpenBabel07192307433D

 50 53  0  0  0  0  0  0  0  0999 V2000
    0.8100    9.2770   19.5240 C   0  0  0  0  0  0  0  0  0  0  0  0
    1.3830    8.2320   20.2590 C   0  0  0  0  0  0  0  0  0  0  0  0
    2.3610    7.4110   19.6900 C   0  0  0  0  0  0  0  0  0  0  0  0
    2.7850    7.6180   18.3750 C   0  0  0  0  0  0  0  0  0  0  0  0
    2.2150    8.6670   17.6420 C   0  0  0  0  0  0  0  0  0  0  0  0
    1.2350    9.4880   18.2130 C   0  0  0  0  0  0  0  0  0  0  0  0
    1.0820    8.0380   21.2860 H   0  0  0  0  0  0  0  0  0  0  0  0
    2.7950    6.6090   20.2860 H   0  0  0  0  0  0  0  0  0  0  0  0
    2.5270    8.8560   16.6180 H   0  0  0  0  0  0  0  0  0  0  0  0
    0.8280   10.2880   17.6030 H   0  0  0  0  0  0  0  0  0  0  0  0
    0.8760   12.1570   20.3200 O   0  0  0  0  0  0  0  0  0  0  0  0
   -0.0520   11.3910   20.5510 C   0  0  0  0  0  0  0  0  0  0  0  0
   -0.1600   10.0650   20.1750 N   0  0  0  0  0  0  0  0  0  0  0  0
   -1.0570    9.6190   20.3240 H   0  0  0  0  0  0  0  0  0  0  0  0
   -1.2280   11.9220   21.2760 C   0  0  0  0  0  0  0  0  0  0  0  0
   -1.1280   12.2030   22.6500 C   0  0  0  0  0  0  0  0  0  0  0  0
   -2.2230   12.7350   23.3650 C   0  0  0  0  0  0  0  0  0  0  0  0
   -3.4430   12.9880   22.7290 C   0  0  0  0  0  0  0  0  0  0  0  0
   -3.5220   12.6840   21.3890 C   0  0  0  0  0  0  0  0  0  0  0  0
   -4.6050   12.7950   20.5260 N   0  0  0  0  0  0  0  0  0  0  0  0
   -4.2340   12.3100   19.2660 C   0  0  0  0  0  0  0  0  0  0  0  0
   -4.9410   12.2260   18.2800 O   0  0  0  0  0  0  0  0  0  0  0  0
   -2.8880   11.9310   19.3640 N   0  0  0  0  0  0  0  0  0  0  0  0
   -2.4470   12.1570   20.6710 C   0  0  0  0  0  0  0  0  0  0  0  0
   -0.1910   12.0140   23.1720 H   0  0  0  0  0  0  0  0  0  0  0  0
   -2.1130   12.9460   24.4270 H   0  0  0  0  0  0  0  0  0  0  0  0
   -4.2870   13.3900   23.2770 H   0  0  0  0  0  0  0  0  0  0  0  0
   -5.5340   13.1160   20.7490 H   0  0  0  0  0  0  0  0  0  0  0  0
   -2.3890   11.4670   18.6200 H   0  0  0  0  0  0  0  0  0  0  0  0
    3.8580    6.7490   17.7630 C   0  0  0  0  0  0  0  0  0  0  0  0
    3.5540    6.4320   16.7580 H   0  0  0  0  0  0  0  0  0  0  0  0
    4.7560    7.3640   17.6170 H   0  0  0  0  0  0  0  0  0  0  0  0
    4.2150    5.5530   18.6460 C   0  0  0  0  0  0  0  0  0  0  0  0
    5.3050    5.5190   18.7650 H   0  0  0  0  0  0  0  0  0  0  0  0
    3.7670    5.6700   19.6380 H   0  0  0  0  0  0  0  0  0  0  0  0
    3.8060    4.2180   18.0430 C   0  0  0  0  0  0  0  0  0  0  0  0
    4.4290    3.6920   17.1200 O   0  0  0  0  0  0  0  0  0  0  0  0
    2.7220    3.5970   18.6280 N   0  0  0  0  0  0  0  0  0  0  0  0
    2.2300    2.3220   18.1390 C   0  0  0  0  0  0  0  0  0  0  0  0
    0.8830    2.1480   18.8280 C   0  0  0  0  0  0  0  0  0  0  0  0
    1.0800    2.8810   20.1490 C   0  0  0  0  0  0  0  0  0  0  0  0
    1.9330    4.0770   19.7500 C   0  0  0  0  0  0  0  0  0  0  0  0
    2.1520    2.3200   17.0480 H   0  0  0  0  0  0  0  0  0  0  0  0
    2.9390    1.5470   18.4490 H   0  0  0  0  0  0  0  0  0  0  0  0
    0.6070    1.0980   18.9560 H   0  0  0  0  0  0  0  0  0  0  0  0
    0.0970    2.6420   18.2450 H   0  0  0  0  0  0  0  0  0  0  0  0
    0.1380    3.1730   20.6220 H   0  0  0  0  0  0  0  0  0  0  0  0
    1.6330    2.2410   20.8480 H   0  0  0  0  0  0  0  0  0  0  0  0
    1.3120    4.9080   19.3960 H   0  0  0  0  0  0  0  0  0  0  0  0
    2.5750    4.4270   20.5640 H   0  0  0  0  0  0  0  0  0  0  0  0
  1 13  1  0  0  0  0
  1  2  1  0  0  0  0
  2  7  1  0  0  0  0
  3  2  2  0  0  0  0
  3  8  1  0  0  0  0
  4  3  1  0  0  0  0
  5  6  1  0  0  0  0
  5  4  2  0  0  0  0
  6  1  2  0  0  0  0
  9  5  1  0  0  0  0
 10  6  1  0  0  0  0
 11 12  2  0  0  0  0
 12 15  1  0  0  0  0
 13 14  1  0  0  0  0
 13 12  1  0  0  0  0
 15 16  1  0  0  0  0
 16 25  1  0  0  0  0
 16 17  2  0  0  0  0
 17 26  1  0  0  0  0
 18 27  1  0  0  0  0
 18 17  1  0  0  0  0
 19 18  2  0  0  0  0
 20 28  1  0  0  0  0
 20 19  1  0  0  0  0
 21 23  1  0  0  0  0
 21 20  1  0  0  0  0
 22 21  2  0  0  0  0
 23 24  1  0  0  0  0
 24 15  2  0  0  0  0
 24 19  1  0  0  0  0
 29 23  1  0  0  0  0
 30  4  1  0  0  0  0
 30 33  1  0  0  0  0
 31 30  1  0  0  0  0
 32 30  1  0  0  0  0
 33 34  1  0  0  0  0
 33 35  1  0  0  0  0
 36 38  1  0  0  0  0
 36 33  1  0  0  0  0
 37 36  2  0  0  0  0
 38 42  1  0  0  0  0
 39 44  1  0  0  0  0
 39 38  1  0  0  0  0
 39 40  1  0  0  0  0
 40 45  1  0  0  0  0
 40 41  1  0  0  0  0
 41 47  1  0  0  0  0
 41 48  1  0  0  0  0
 42 41  1  0  0  0  0
 42 50  1  0  0  0  0
 43 39  1  0  0  0  0
 46 40  1  0  0  0  0
 49 42  1  0  0  0  0
M  END
>  <MODEL>
15

>  <REMARK>
 VINA RESULT:    -7.943      2.144      9.198
 INTER + INTRA:         -10.955
 INTER:                 -10.284
 INTRA:                  -0.671
 UNBOUND:                -0.690
  Name = 
  5 active torsions:
  status: ('A' for Active; 'I' for Inactive)
    1  A    between atoms: C_2  and  C_19
    2  A    between atoms: N_3  and  C_4
    3  A    between atoms: C_7  and  C_8
    4  A    between atoms: C_8  and  C_9
    5  A    between atoms: C_9  and  C_10
                            x       y       z     vdW  Elec       q    Type
                         _______ _______ _______ _____ _____    ______ ____

>  <TORSDO>
F 5

$$$$
=
 OpenBabel07192307433D

 50 53  0  0  0  0  0  0  0  0999 V2000
    1.6050    8.4340   19.4890 C   0  0  0  0  0  0  0  0  0  0  0  0
    1.2020    8.6270   20.8150 C   0  0  0  0  0  0  0  0  0  0  0  0
    0.6930    9.8590   21.2360 C   0  0  0  0  0  0  0  0  0  0  0  0
    0.5770   10.9220   20.3370 C   0  0  0  0  0  0  0  0  0  0  0  0
    0.9750   10.7270   19.0090 C   0  0  0  0  0  0  0  0  0  0  0  0
    1.4860    9.4930   18.5890 C   0  0  0  0  0  0  0  0  0  0  0  0
    1.2740    7.8240   21.5450 H   0  0  0  0  0  0  0  0  0  0  0  0
    0.3800    9.9800   22.2720 H   0  0  0  0  0  0  0  0  0  0  0  0
    0.8930   11.5350   18.2850 H   0  0  0  0  0  0  0  0  0  0  0  0
    1.7770    9.3930   17.5480 H   0  0  0  0  0  0  0  0  0  0  0  0
    3.6540    7.6330   17.4650 O   0  0  0  0  0  0  0  0  0  0  0  0
    3.0230    6.8500   18.1650 C   0  0  0  0  0  0  0  0  0  0  0  0
    2.0960    7.1580   19.1440 N   0  0  0  0  0  0  0  0  0  0  0  0
    1.7750    6.3940   19.7260 H   0  0  0  0  0  0  0  0  0  0  0  0
    3.2880    5.4030   18.0040 C   0  0  0  0  0  0  0  0  0  0  0  0
    2.4470    4.4690   18.6330 C   0  0  0  0  0  0  0  0  0  0  0  0
    2.6560    3.0810   18.4780 C   0  0  0  0  0  0  0  0  0  0  0  0
    3.7140    2.5960   17.7020 C   0  0  0  0  0  0  0  0  0  0  0  0
    4.5350    3.5310   17.1140 C   0  0  0  0  0  0  0  0  0  0  0  0
    5.6680    3.3360   16.3320 N   0  0  0  0  0  0  0  0  0  0  0  0
    6.2130    4.5840   16.0060 C   0  0  0  0  0  0  0  0  0  0  0  0
    7.2250    4.7910   15.3620 O   0  0  0  0  0  0  0  0  0  0  0  0
    5.3730    5.5500   16.5740 N   0  0  0  0  0  0  0  0  0  0  0  0
    4.3390    4.9050   17.2600 C   0  0  0  0  0  0  0  0  0  0  0  0
    1.6170    4.8180   19.2460 H   0  0  0  0  0  0  0  0  0  0  0  0
    1.9850    2.3830   18.9740 H   0  0  0  0  0  0  0  0  0  0  0  0
    3.8810    1.5320   17.5860 H   0  0  0  0  0  0  0  0  0  0  0  0
    6.0860    2.4580   16.0690 H   0  0  0  0  0  0  0  0  0  0  0  0
    5.5790    6.5380   16.5640 H   0  0  0  0  0  0  0  0  0  0  0  0
    0.0050   12.2490   20.7800 C   0  0  0  0  0  0  0  0  0  0  0  0
   -0.5910   12.1130   21.6910 H   0  0  0  0  0  0  0  0  0  0  0  0
    0.8390   12.9020   21.0680 H   0  0  0  0  0  0  0  0  0  0  0  0
   -0.8030   12.9340   19.6770 C   0  0  0  0  0  0  0  0  0  0  0  0
   -0.7120   14.0210   19.8020 H   0  0  0  0  0  0  0  0  0  0  0  0
   -0.3990   12.6690   18.6940 H   0  0  0  0  0  0  0  0  0  0  0  0
   -2.2890   12.6160   19.7340 C   0  0  0  0  0  0  0  0  0  0  0  0
   -3.0010   12.9590   20.6780 O   0  0  0  0  0  0  0  0  0  0  0  0
   -2.8100   11.9640   18.6370 N   0  0  0  0  0  0  0  0  0  0  0  0
   -4.2130   11.5980   18.5730 C   0  0  0  0  0  0  0  0  0  0  0  0
   -4.3040   10.6530   17.3830 C   0  0  0  0  0  0  0  0  0  0  0  0
   -3.2000   11.1580   16.4630 C   0  0  0  0  0  0  0  0  0  0  0  0
   -2.0980   11.5500   17.4380 C   0  0  0  0  0  0  0  0  0  0  0  0
   -4.5440   11.1360   19.5090 H   0  0  0  0  0  0  0  0  0  0  0  0
   -4.7920   12.5130   18.4020 H   0  0  0  0  0  0  0  0  0  0  0  0
   -5.2910   10.6600   16.9130 H   0  0  0  0  0  0  0  0  0  0  0  0
   -4.0810    9.6270   17.7000 H   0  0  0  0  0  0  0  0  0  0  0  0
   -2.8730   10.4100   15.7350 H   0  0  0  0  0  0  0  0  0  0  0  0
   -3.5490   12.0420   15.9160 H   0  0  0  0  0  0  0  0  0  0  0  0
   -1.4720   10.6890   17.6980 H   0  0  0  0  0  0  0  0  0  0  0  0
   -1.4650   12.3550   17.0570 H   0  0  0  0  0  0  0  0  0  0  0  0
  1  2  1  0  0  0  0
  2  3  2  0  0  0  0
  2  7  1  0  0  0  0
  3  8  1  0  0  0  0
  4 30  1  0  0  0  0
  4  3  1  0  0  0  0
  5  4  2  0  0  0  0
  6  5  1  0  0  0  0
  6  1  2  0  0  0  0
  9  5  1  0  0  0  0
 10  6  1  0  0  0  0
 11 12  2  0  0  0  0
 12 13  1  0  0  0  0
 13  1  1  0  0  0  0
 13 14  1  0  0  0  0
 15 12  1  0  0  0  0
 15 16  1  0  0  0  0
 16 25  1  0  0  0  0
 17 16  2  0  0  0  0
 17 26  1  0  0  0  0
 18 17  1  0  0  0  0
 19 24  1  0  0  0  0
 19 18  2  0  0  0  0
 20 19  1  0  0  0  0
 21 20  1  0  0  0  0
 21 23  1  0  0  0  0
 22 21  2  0  0  0  0
 23 24  1  0  0  0  0
 24 15  2  0  0  0  0
 27 18  1  0  0  0  0
 28 20  1  0  0  0  0
 29 23  1  0  0  0  0
 30 32  1  0  0  0  0
 30 31  1  0  0  0  0
 33 36  1  0  0  0  0
 33 34  1  0  0  0  0
 33 30  1  0  0  0  0
 35 33  1  0  0  0  0
 36 37  2  0  0  0  0
 38 36  1  0  0  0  0
 39 38  1  0  0  0  0
 39 43  1  0  0  0  0
 40 46  1  0  0  0  0
 40 39  1  0  0  0  0
 41 40  1  0  0  0  0
 41 42  1  0  0  0  0
 42 49  1  0  0  0  0
 42 38  1  0  0  0  0
 44 39  1  0  0  0  0
 45 40  1  0  0  0  0
 47 41  1  0  0  0  0
 48 41  1  0  0  0  0
 50 42  1  0  0  0  0
M  END
>  <MODEL>
16

>  <REMARK>
 VINA RESULT:    -7.926      1.596      1.808
 INTER + INTRA:         -10.933
 INTER:                 -10.140
 INTRA:                  -0.793
 UNBOUND:                -0.690
  Name = 
  5 active torsions:
  status: ('A' for Active; 'I' for Inactive)
    1  A    between atoms: C_2  and  C_19
    2  A    between atoms: N_3  and  C_4
    3  A    between atoms: C_7  and  C_8
    4  A    between atoms: C_8  and  C_9
    5  A    between atoms: C_9  and  C_10
                            x       y       z     vdW  Elec       q    Type
                         _______ _______ _______ _____ _____    ______ ____

>  <TORSDO>
F 5

$$$$
=
 OpenBabel07192307433D

 50 53  0  0  0  0  0  0  0  0999 V2000
    1.1020    8.8150   20.5620 C   0  0  0  0  0  0  0  0  0  0  0  0
    0.5510    9.2940   21.7560 C   0  0  0  0  0  0  0  0  0  0  0  0
   -0.0260   10.5670   21.8190 C   0  0  0  0  0  0  0  0  0  0  0  0
   -0.0600   11.3850   20.6870 C   0  0  0  0  0  0  0  0  0  0  0  0
    0.4870   10.9040   19.4910 C   0  0  0  0  0  0  0  0  0  0  0  0
    1.0640    9.6290   19.4300 C   0  0  0  0  0  0  0  0  0  0  0  0
    0.5560    8.6880   22.6590 H   0  0  0  0  0  0  0  0  0  0  0  0
   -0.4540   10.9120   22.7580 H   0  0  0  0  0  0  0  0  0  0  0  0
    0.4710   11.5160   18.5920 H   0  0  0  0  0  0  0  0  0  0  0  0
    1.4710    9.3030   18.4790 H   0  0  0  0  0  0  0  0  0  0  0  0
    2.7830    7.3980   18.5390 O   0  0  0  0  0  0  0  0  0  0  0  0
    2.3940    6.9040   19.5900 C   0  0  0  0  0  0  0  0  0  0  0  0
    1.6520    7.5180   20.5820 N   0  0  0  0  0  0  0  0  0  0  0  0
    1.5390    7.0080   21.4500 H   0  0  0  0  0  0  0  0  0  0  0  0
    2.7800    5.5060   19.8870 C   0  0  0  0  0  0  0  0  0  0  0  0
    1.9570    4.7200   20.7120 C   0  0  0  0  0  0  0  0  0  0  0  0
    2.2820    3.3750   20.9930 C   0  0  0  0  0  0  0  0  0  0  0  0
    3.4390    2.7890   20.4670 C   0  0  0  0  0  0  0  0  0  0  0  0
    4.2380    3.5870   19.6800 C   0  0  0  0  0  0  0  0  0  0  0  0
    5.4470    3.2830   19.0660 N   0  0  0  0  0  0  0  0  0  0  0  0
    5.9260    4.4280   18.4170 C   0  0  0  0  0  0  0  0  0  0  0  0
    6.9730    4.5350   17.8060 O   0  0  0  0  0  0  0  0  0  0  0  0
    4.9680    5.4320   18.6150 N   0  0  0  0  0  0  0  0  0  0  0  0
    3.9280    4.9180   19.3950 C   0  0  0  0  0  0  0  0  0  0  0  0
    1.0510    5.1500   21.1370 H   0  0  0  0  0  0  0  0  0  0  0  0
    1.6230    2.7900   21.6320 H   0  0  0  0  0  0  0  0  0  0  0  0
    3.6940    1.7600   20.6860 H   0  0  0  0  0  0  0  0  0  0  0  0
    5.9520    2.4120   19.1060 H   0  0  0  0  0  0  0  0  0  0  0  0
    5.1000    6.3880   18.3230 H   0  0  0  0  0  0  0  0  0  0  0  0
   -0.7030   12.7520   20.7420 C   0  0  0  0  0  0  0  0  0  0  0  0
   -0.4080   13.2660   21.6650 H   0  0  0  0  0  0  0  0  0  0  0  0
   -0.2910   13.3570   19.9240 H   0  0  0  0  0  0  0  0  0  0  0  0
   -2.2240   12.6890   20.5940 C   0  0  0  0  0  0  0  0  0  0  0  0
   -2.4750   12.7790   19.5300 H   0  0  0  0  0  0  0  0  0  0  0  0
   -2.5970   11.7240   20.9530 H   0  0  0  0  0  0  0  0  0  0  0  0
   -2.9440   13.8240   21.3050 C   0  0  0  0  0  0  0  0  0  0  0  0
   -3.1740   14.9030   20.7590 O   0  0  0  0  0  0  0  0  0  0  0  0
   -3.3770   13.5560   22.5870 N   0  0  0  0  0  0  0  0  0  0  0  0
   -4.0710   14.5600   23.3730 C   0  0  0  0  0  0  0  0  0  0  0  0
   -4.0910   13.9880   24.7830 C   0  0  0  0  0  0  0  0  0  0  0  0
   -4.1270   12.4840   24.5400 C   0  0  0  0  0  0  0  0  0  0  0  0
   -3.2210   12.3160   23.3280 C   0  0  0  0  0  0  0  0  0  0  0  0
   -3.5640   15.5280   23.3140 H   0  0  0  0  0  0  0  0  0  0  0  0
   -5.0840   14.6630   22.9680 H   0  0  0  0  0  0  0  0  0  0  0  0
   -4.9400   14.3480   25.3720 H   0  0  0  0  0  0  0  0  0  0  0  0
   -3.1680   14.2550   25.3100 H   0  0  0  0  0  0  0  0  0  0  0  0
   -3.7910   11.9020   25.4020 H   0  0  0  0  0  0  0  0  0  0  0  0
   -5.1480   12.1740   24.2900 H   0  0  0  0  0  0  0  0  0  0  0  0
   -2.1690   12.2310   23.6260 H   0  0  0  0  0  0  0  0  0  0  0  0
   -3.4930   11.4520   22.7150 H   0  0  0  0  0  0  0  0  0  0  0  0
  1 13  1  0  0  0  0
  1  2  1  0  0  0  0
  2  3  2  0  0  0  0
  2  7  1  0  0  0  0
  3  8  1  0  0  0  0
  4 30  1  0  0  0  0
  4  3  1  0  0  0  0
  5  4  2  0  0  0  0
  6  5  1  0  0  0  0
  6  1  2  0  0  0  0
  9  5  1  0  0  0  0
 10  6  1  0  0  0  0
 11 12  2  0  0  0  0
 12 15  1  0  0  0  0
 12 13  1  0  0  0  0
 13 14  1  0  0  0  0
 15 16  1  0  0  0  0
 16 17  2  0  0  0  0
 16 25  1  0  0  0  0
 17 26  1  0  0  0  0
 18 27  1  0  0  0  0
 18 17  1  0  0  0  0
 19 18  2  0  0  0  0
 20 28  1  0  0  0  0
 20 19  1  0  0  0  0
 21 23  1  0  0  0  0
 21 20  1  0  0  0  0
 22 21  2  0  0  0  0
 23 24  1  0  0  0  0
 24 19  1  0  0  0  0
 24 15  2  0  0  0  0
 29 23  1  0  0  0  0
 30 31  1  0  0  0  0
 32 30  1  0  0  0  0
 33 30  1  0  0  0  0
 33 35  1  0  0  0  0
 33 36  1  0  0  0  0
 34 33  1  0  0  0  0
 36 38  1  0  0  0  0
 37 36  2  0  0  0  0
 38 42  1  0  0  0  0
 38 39  1  0  0  0  0
 39 40  1  0  0  0  0
 40 46  1  0  0  0  0
 40 45  1  0  0  0  0
 41 40  1  0  0  0  0
 41 47  1  0  0  0  0
 42 49  1  0  0  0  0
 42 41  1  0  0  0  0
 43 39  1  0  0  0  0
 44 39  1  0  0  0  0
 48 41  1  0  0  0  0
 50 42  1  0  0  0  0
M  END
>  <MODEL>
17

>  <REMARK>
 VINA RESULT:    -7.912      1.896      2.929
 INTER + INTRA:         -10.914
 INTER:                 -10.361
 INTRA:                  -0.553
 UNBOUND:                -0.690
  Name = 
  5 active torsions:
  status: ('A' for Active; 'I' for Inactive)
    1  A    between atoms: C_2  and  C_19
    2  A    between atoms: N_3  and  C_4
    3  A    between atoms: C_7  and  C_8
    4  A    between atoms: C_8  and  C_9
    5  A    between atoms: C_9  and  C_10
                            x       y       z     vdW  Elec       q    Type
                         _______ _______ _______ _____ _____    ______ ____

>  <TORSDO>
F 5

$$$$
=
 OpenBabel07192307433D

 50 53  0  0  0  0  0  0  0  0999 V2000
    1.6050    8.5870   19.9360 C   0  0  0  0  0  0  0  0  0  0  0  0
    1.5110    7.4640   20.7660 C   0  0  0  0  0  0  0  0  0  0  0  0
    1.8190    6.1890   20.2810 C   0  0  0  0  0  0  0  0  0  0  0  0
    2.2270    6.0130   18.9570 C   0  0  0  0  0  0  0  0  0  0  0  0
    2.3250    7.1370   18.1280 C   0  0  0  0  0  0  0  0  0  0  0  0
    2.0160    8.4130   18.6140 C   0  0  0  0  0  0  0  0  0  0  0  0
    1.1990    7.5580   21.8030 H   0  0  0  0  0  0  0  0  0  0  0  0
    1.7440    5.3330   20.9510 H   0  0  0  0  0  0  0  0  0  0  0  0
    2.6440    7.0330   17.0930 H   0  0  0  0  0  0  0  0  0  0  0  0
    2.1120    9.2520   17.9320 H   0  0  0  0  0  0  0  0  0  0  0  0
   -0.8860   10.2270   19.7340 O   0  0  0  0  0  0  0  0  0  0  0  0
    0.1240   10.5640   20.3410 C   0  0  0  0  0  0  0  0  0  0  0  0
    1.2870    9.8360   20.5050 N   0  0  0  0  0  0  0  0  0  0  0  0
    1.9690   10.2060   21.1560 H   0  0  0  0  0  0  0  0  0  0  0  0
    0.1180   11.8770   21.0250 C   0  0  0  0  0  0  0  0  0  0  0  0
    1.1380   12.8050   20.7550 C   0  0  0  0  0  0  0  0  0  0  0  0
    1.1480   14.0750   21.3700 C   0  0  0  0  0  0  0  0  0  0  0  0
    0.1470   14.4430   22.2770 C   0  0  0  0  0  0  0  0  0  0  0  0
   -0.8280   13.5090   22.5400 C   0  0  0  0  0  0  0  0  0  0  0  0
   -1.9070   13.5880   23.4140 N   0  0  0  0  0  0  0  0  0  0  0  0
   -2.5960   12.3700   23.3940 C   0  0  0  0  0  0  0  0  0  0  0  0
   -3.5710   12.0730   24.0600 O   0  0  0  0  0  0  0  0  0  0  0  0
   -1.9400   11.5520   22.4650 N   0  0  0  0  0  0  0  0  0  0  0  0
   -0.8480   12.2490   21.9380 C   0  0  0  0  0  0  0  0  0  0  0  0
    1.9320   12.5450   20.0560 H   0  0  0  0  0  0  0  0  0  0  0  0
    1.9490   14.7740   21.1380 H   0  0  0  0  0  0  0  0  0  0  0  0
    0.1550   15.4150   22.7560 H   0  0  0  0  0  0  0  0  0  0  0  0
   -2.1500   14.3580   24.0160 H   0  0  0  0  0  0  0  0  0  0  0  0
   -2.1790   10.5830   22.3140 H   0  0  0  0  0  0  0  0  0  0  0  0
    2.5840    4.6410   18.4340 C   0  0  0  0  0  0  0  0  0  0  0  0
    2.6480    3.9300   19.2670 H   0  0  0  0  0  0  0  0  0  0  0  0
    1.7550    4.2860   17.8080 H   0  0  0  0  0  0  0  0  0  0  0  0
    3.8670    4.6490   17.6010 C   0  0  0  0  0  0  0  0  0  0  0  0
    3.8600    3.7710   16.9430 H   0  0  0  0  0  0  0  0  0  0  0  0
    3.9030    5.5460   16.9750 H   0  0  0  0  0  0  0  0  0  0  0  0
    5.1300    4.5470   18.4420 C   0  0  0  0  0  0  0  0  0  0  0  0
    5.3080    3.6430   19.2590 O   0  0  0  0  0  0  0  0  0  0  0  0
    6.0960    5.5010   18.1990 N   0  0  0  0  0  0  0  0  0  0  0  0
    7.3430    5.5160   18.9410 C   0  0  0  0  0  0  0  0  0  0  0  0
    7.9680    6.8620   18.6010 C   0  0  0  0  0  0  0  0  0  0  0  0
    7.4620    7.1250   17.1890 C   0  0  0  0  0  0  0  0  0  0  0  0
    6.0390    6.5850   17.2330 C   0  0  0  0  0  0  0  0  0  0  0  0
    7.1670    5.3880   20.0130 H   0  0  0  0  0  0  0  0  0  0  0  0
    7.9600    4.6860   18.5780 H   0  0  0  0  0  0  0  0  0  0  0  0
    9.0600    6.8500   18.6700 H   0  0  0  0  0  0  0  0  0  0  0  0
    7.5890    7.6340   19.2800 H   0  0  0  0  0  0  0  0  0  0  0  0
    7.5040    8.1810   16.9080 H   0  0  0  0  0  0  0  0  0  0  0  0
    8.0580    6.5530   16.4690 H   0  0  0  0  0  0  0  0  0  0  0  0
    5.3390    7.3390   17.6120 H   0  0  0  0  0  0  0  0  0  0  0  0
    5.6930    6.2290   16.2580 H   0  0  0  0  0  0  0  0  0  0  0  0
  1 13  1  0  0  0  0
  1  2  1  0  0  0  0
  2  7  1  0  0  0  0
  3  2  2  0  0  0  0
  3  8  1  0  0  0  0
  4  3  1  0  0  0  0
  5  6  1  0  0  0  0
  5  4  2  0  0  0  0
  6  1  2  0  0  0  0
  9  5  1  0  0  0  0
 10  6  1  0  0  0  0
 11 12  2  0  0  0  0
 12 13  1  0  0  0  0
 12 15  1  0  0  0  0
 13 14  1  0  0  0  0
 15 24  1  0  0  0  0
 16 15  2  0  0  0  0
 16 17  1  0  0  0  0
 17 18  2  0  0  0  0
 18 19  1  0  0  0  0
 18 27  1  0  0  0  0
 19 20  1  0  0  0  0
 20 28  1  0  0  0  0
 21 20  1  0  0  0  0
 21 22  2  0  0  0  0
 23 21  1  0  0  0  0
 24 23  1  0  0  0  0
 24 19  2  0  0  0  0
 25 16  1  0  0  0  0
 26 17  1  0  0  0  0
 29 23  1  0  0  0  0
 30  4  1  0  0  0  0
 30 31  1  0  0  0  0
 32 30  1  0  0  0  0
 33 30  1  0  0  0  0
 33 36  1  0  0  0  0
 34 33  1  0  0  0  0
 35 33  1  0  0  0  0
 36 37  2  0  0  0  0
 38 36  1  0  0  0  0
 38 39  1  0  0  0  0
 39 43  1  0  0  0  0
 40 45  1  0  0  0  0
 40 39  1  0  0  0  0
 40 46  1  0  0  0  0
 41 42  1  0  0  0  0
 41 40  1  0  0  0  0
 42 49  1  0  0  0  0
 42 38  1  0  0  0  0
 44 39  1  0  0  0  0
 47 41  1  0  0  0  0
 48 41  1  0  0  0  0
 50 42  1  0  0  0  0
M  END
>  <MODEL>
18

>  <REMARK>
 VINA RESULT:    -7.862      2.700      9.475
 INTER + INTRA:         -10.850
 INTER:                  -9.777
 INTRA:                  -1.072
 UNBOUND:                -0.690
  Name = 
  5 active torsions:
  status: ('A' for Active; 'I' for Inactive)
    1  A    between atoms: C_2  and  C_19
    2  A    between atoms: N_3  and  C_4
    3  A    between atoms: C_7  and  C_8
    4  A    between atoms: C_8  and  C_9
    5  A    between atoms: C_9  and  C_10
                            x       y       z     vdW  Elec       q    Type
                         _______ _______ _______ _____ _____    ______ ____

>  <TORSDO>
F 5

$$$$
=
 OpenBabel07192307433D

 50 53  0  0  0  0  0  0  0  0999 V2000
    1.2290    8.7050   20.6690 C   0  0  0  0  0  0  0  0  0  0  0  0
    0.4010    8.5840   21.7910 C   0  0  0  0  0  0  0  0  0  0  0  0
   -0.4490    9.6290   22.1680 C   0  0  0  0  0  0  0  0  0  0  0  0
   -0.4860   10.8140   21.4300 C   0  0  0  0  0  0  0  0  0  0  0  0
    0.3380   10.9330   20.3060 C   0  0  0  0  0  0  0  0  0  0  0  0
    1.1890    9.8870   19.9290 C   0  0  0  0  0  0  0  0  0  0  0  0
    0.3980    7.6770   22.3910 H   0  0  0  0  0  0  0  0  0  0  0  0
   -1.0880    9.5050   23.0410 H   0  0  0  0  0  0  0  0  0  0  0  0
    0.3290   11.8420   19.7080 H   0  0  0  0  0  0  0  0  0  0  0  0
    1.8060   10.0280   19.0470 H   0  0  0  0  0  0  0  0  0  0  0  0
    2.0700    7.6260   18.0120 O   0  0  0  0  0  0  0  0  0  0  0  0
    2.3680    7.1300   19.0910 C   0  0  0  0  0  0  0  0  0  0  0  0
    2.0460    7.6020   20.3500 N   0  0  0  0  0  0  0  0  0  0  0  0
    2.4940    7.1490   21.1370 H   0  0  0  0  0  0  0  0  0  0  0  0
    3.2040    5.9090   19.0880 C   0  0  0  0  0  0  0  0  0  0  0  0
    4.3630    5.8630   18.2950 C   0  0  0  0  0  0  0  0  0  0  0  0
    5.1970    4.7240   18.2900 C   0  0  0  0  0  0  0  0  0  0  0  0
    4.8870    3.6020   19.0660 C   0  0  0  0  0  0  0  0  0  0  0  0
    3.7350    3.6640   19.8170 C   0  0  0  0  0  0  0  0  0  0  0  0
    3.1710    2.6960   20.6400 N   0  0  0  0  0  0  0  0  0  0  0  0
    1.9640    3.1850   21.1530 C   0  0  0  0  0  0  0  0  0  0  0  0
    1.1890    2.5930   21.8820 O   0  0  0  0  0  0  0  0  0  0  0  0
    1.8140    4.4860   20.6560 N   0  0  0  0  0  0  0  0  0  0  0  0
    2.9030    4.7840   19.8300 C   0  0  0  0  0  0  0  0  0  0  0  0
    4.6290    6.7210   17.6780 H   0  0  0  0  0  0  0  0  0  0  0  0
    6.0900    4.7200   17.6680 H   0  0  0  0  0  0  0  0  0  0  0  0
    5.5210    2.7240   19.0590 H   0  0  0  0  0  0  0  0  0  0  0  0
    3.5180    1.7670   20.8180 H   0  0  0  0  0  0  0  0  0  0  0  0
    0.9850    5.0430   20.8020 H   0  0  0  0  0  0  0  0  0  0  0  0
   -1.4200   11.9370   21.8200 C   0  0  0  0  0  0  0  0  0  0  0  0
   -2.3090   11.5280   22.3150 H   0  0  0  0  0  0  0  0  0  0  0  0
   -0.9180   12.5530   22.5770 H   0  0  0  0  0  0  0  0  0  0  0  0
   -1.7960   12.8220   20.6310 C   0  0  0  0  0  0  0  0  0  0  0  0
   -1.8550   13.8620   20.9750 H   0  0  0  0  0  0  0  0  0  0  0  0
   -1.0240   12.7620   19.8570 H   0  0  0  0  0  0  0  0  0  0  0  0
   -3.1560   12.4870   20.0380 C   0  0  0  0  0  0  0  0  0  0  0  0
   -4.2110   12.7730   20.6050 O   0  0  0  0  0  0  0  0  0  0  0  0
   -3.1430   11.8880   18.7960 N   0  0  0  0  0  0  0  0  0  0  0  0
   -4.3760   11.5120   18.1280 C   0  0  0  0  0  0  0  0  0  0  0  0
   -3.9240   10.6300   16.9720 C   0  0  0  0  0  0  0  0  0  0  0  0
   -2.5510   11.1930   16.6300 C   0  0  0  0  0  0  0  0  0  0  0  0
   -1.9790   11.5450   17.9970 C   0  0  0  0  0  0  0  0  0  0  0  0
   -5.0570   10.9990   18.8130 H   0  0  0  0  0  0  0  0  0  0  0  0
   -4.8550   12.4290   17.7670 H   0  0  0  0  0  0  0  0  0  0  0  0
   -4.6200   10.6520   16.1280 H   0  0  0  0  0  0  0  0  0  0  0  0
   -3.8250    9.5920   17.3090 H   0  0  0  0  0  0  0  0  0  0  0  0
   -1.9230   10.4880   16.0780 H   0  0  0  0  0  0  0  0  0  0  0  0
   -2.6630   12.1010   16.0260 H   0  0  0  0  0  0  0  0  0  0  0  0
   -1.4950   10.6770   18.4600 H   0  0  0  0  0  0  0  0  0  0  0  0
   -1.2680   12.3750   17.9560 H   0  0  0  0  0  0  0  0  0  0  0  0
  1  2  1  0  0  0  0
  2  3  2  0  0  0  0
  2  7  1  0  0  0  0
  3  8  1  0  0  0  0
  4 30  1  0  0  0  0
  4  3  1  0  0  0  0
  5  4  2  0  0  0  0
  6  5  1  0  0  0  0
  6  1  2  0  0  0  0
  9  5  1  0  0  0  0
 10  6  1  0  0  0  0
 11 12  2  0  0  0  0
 12 13  1  0  0  0  0
 13  1  1  0  0  0  0
 13 14  1  0  0  0  0
 15 12  1  0  0  0  0
 15 24  1  0  0  0  0
 16 15  2  0  0  0  0
 17 16  1  0  0  0  0
 17 18  2  0  0  0  0
 18 19  1  0  0  0  0
 19 24  2  0  0  0  0
 19 20  1  0  0  0  0
 20 28  1  0  0  0  0
 20 21  1  0  0  0  0
 21 22  2  0  0  0  0
 23 29  1  0  0  0  0
 23 21  1  0  0  0  0
 24 23  1  0  0  0  0
 25 16  1  0  0  0  0
 26 17  1  0  0  0  0
 27 18  1  0  0  0  0
 30 31  1  0  0  0  0
 30 32  1  0  0  0  0
 33 34  1  0  0  0  0
 33 30  1  0  0  0  0
 35 33  1  0  0  0  0
 36 37  2  0  0  0  0
 36 33  1  0  0  0  0
 38 36  1  0  0  0  0
 39 38  1  0  0  0  0
 39 43  1  0  0  0  0
 40 46  1  0  0  0  0
 40 39  1  0  0  0  0
 41 40  1  0  0  0  0
 41 42  1  0  0  0  0
 42 49  1  0  0  0  0
 42 38  1  0  0  0  0
 44 39  1  0  0  0  0
 45 40  1  0  0  0  0
 47 41  1  0  0  0  0
 48 41  1  0  0  0  0
 50 42  1  0  0  0  0
M  END
>  <MODEL>
19

>  <REMARK>
 VINA RESULT:    -7.828      1.500      2.260
 INTER + INTRA:         -10.806
 INTER:                 -10.436
 INTRA:                  -0.370
 UNBOUND:                -0.690
  Name = 
  5 active torsions:
  status: ('A' for Active; 'I' for Inactive)
    1  A    between atoms: C_2  and  C_19
    2  A    between atoms: N_3  and  C_4
    3  A    between atoms: C_7  and  C_8
    4  A    between atoms: C_8  and  C_9
    5  A    between atoms: C_9  and  C_10
                            x       y       z     vdW  Elec       q    Type
                         _______ _______ _______ _____ _____    ______ ____

>  <TORSDO>
F 5

$$$$
=
 OpenBabel07192307433D

 50 53  0  0  0  0  0  0  0  0999 V2000
    1.7390    8.5670   19.2690 C   0  0  0  0  0  0  0  0  0  0  0  0
    1.5790    7.7950   20.4250 C   0  0  0  0  0  0  0  0  0  0  0  0
    1.9610    6.4500   20.4460 C   0  0  0  0  0  0  0  0  0  0  0  0
    2.5100    5.8510   19.3090 C   0  0  0  0  0  0  0  0  0  0  0  0
    2.6740    6.6250   18.1540 C   0  0  0  0  0  0  0  0  0  0  0  0
    2.2910    7.9720   18.1340 C   0  0  0  0  0  0  0  0  0  0  0  0
    1.1580    8.2230   21.3320 H   0  0  0  0  0  0  0  0  0  0  0  0
    1.8320    5.8740   21.3610 H   0  0  0  0  0  0  0  0  0  0  0  0
    3.1020    6.1890   17.2540 H   0  0  0  0  0  0  0  0  0  0  0  0
    2.4420    8.5280   17.2150 H   0  0  0  0  0  0  0  0  0  0  0  0
   -0.5630    9.9690   17.9780 O   0  0  0  0  0  0  0  0  0  0  0  0
    0.2800   10.5140   18.6800 C   0  0  0  0  0  0  0  0  0  0  0  0
    1.3400    9.9170   19.3360 N   0  0  0  0  0  0  0  0  0  0  0  0
    1.8560   10.4930   19.9900 H   0  0  0  0  0  0  0  0  0  0  0  0
    0.1570   11.9710   18.9100 C   0  0  0  0  0  0  0  0  0  0  0  0
    1.2310   12.8180   18.5870 C   0  0  0  0  0  0  0  0  0  0  0  0
    1.1370   14.2140   18.7690 C   0  0  0  0  0  0  0  0  0  0  0  0
   -0.0260   14.7950   19.2870 C   0  0  0  0  0  0  0  0  0  0  0  0
   -1.0550   13.9430   19.6150 C   0  0  0  0  0  0  0  0  0  0  0  0
   -2.2930   14.2360   20.1750 N   0  0  0  0  0  0  0  0  0  0  0  0
   -2.9890   13.0400   20.3880 C   0  0  0  0  0  0  0  0  0  0  0  0
   -4.0890   12.9170   20.8930 O   0  0  0  0  0  0  0  0  0  0  0  0
   -2.1670   12.0080   19.9150 N   0  0  0  0  0  0  0  0  0  0  0  0
   -0.9730   12.5600   19.4400 C   0  0  0  0  0  0  0  0  0  0  0  0
    2.1500   12.3930   18.1840 H   0  0  0  0  0  0  0  0  0  0  0  0
    1.9840   14.8450   18.5060 H   0  0  0  0  0  0  0  0  0  0  0  0
   -0.0990   15.8660   19.4340 H   0  0  0  0  0  0  0  0  0  0  0  0
   -2.6430   15.1410   20.4460 H   0  0  0  0  0  0  0  0  0  0  0  0
   -2.3900   11.0290   20.0230 H   0  0  0  0  0  0  0  0  0  0  0  0
    2.9460    4.4050   19.3320 C   0  0  0  0  0  0  0  0  0  0  0  0
    3.5990    4.2260   20.1950 H   0  0  0  0  0  0  0  0  0  0  0  0
    2.0580    3.7820   19.5010 H   0  0  0  0  0  0  0  0  0  0  0  0
    3.6130    3.9750   18.0240 C   0  0  0  0  0  0  0  0  0  0  0  0
    3.4890    2.8900   17.9100 H   0  0  0  0  0  0  0  0  0  0  0  0
    3.1270    4.4660   17.1750 H   0  0  0  0  0  0  0  0  0  0  0  0
    5.1090    4.2430   17.9970 C   0  0  0  0  0  0  0  0  0  0  0  0
    5.7820    4.3380   19.0240 O   0  0  0  0  0  0  0  0  0  0  0  0
    5.6860    4.3210   16.7460 N   0  0  0  0  0  0  0  0  0  0  0  0
    7.1060    4.5790   16.5860 C   0  0  0  0  0  0  0  0  0  0  0  0
    7.2680    4.8900   15.1040 C   0  0  0  0  0  0  0  0  0  0  0  0
    6.1660    4.0580   14.4600 C   0  0  0  0  0  0  0  0  0  0  0  0
    5.0240    4.1750   15.4610 C   0  0  0  0  0  0  0  0  0  0  0  0
    7.4330    5.4010   17.2310 H   0  0  0  0  0  0  0  0  0  0  0  0
    7.6470    3.6690   16.8650 H   0  0  0  0  0  0  0  0  0  0  0  0
    8.2650    4.6450   14.7290 H   0  0  0  0  0  0  0  0  0  0  0  0
    7.0830    5.9550   14.9210 H   0  0  0  0  0  0  0  0  0  0  0  0
    5.8900    4.4110   13.4620 H   0  0  0  0  0  0  0  0  0  0  0  0
    6.4890    3.0140   14.3800 H   0  0  0  0  0  0  0  0  0  0  0  0
    4.4300    5.0790   15.2820 H   0  0  0  0  0  0  0  0  0  0  0  0
    4.3650    3.3020   15.4520 H   0  0  0  0  0  0  0  0  0  0  0  0
  1 13  1  0  0  0  0
  1  2  1  0  0  0  0
  2  3  2  0  0  0  0
  2  7  1  0  0  0  0
  3  8  1  0  0  0  0
  4 30  1  0  0  0  0
  4  3  1  0  0  0  0
  5  4  2  0  0  0  0
  6  5  1  0  0  0  0
  6  1  2  0  0  0  0
  9  5  1  0  0  0  0
 10  6  1  0  0  0  0
 11 12  2  0  0  0  0
 12 15  1  0  0  0  0
 12 13  1  0  0  0  0
 13 14  1  0  0  0  0
 15 24  1  0  0  0  0
 16 17  1  0  0  0  0
 16 15  2  0  0  0  0
 17 18  2  0  0  0  0
 18 27  1  0  0  0  0
 18 19  1  0  0  0  0
 19 20  1  0  0  0  0
 20 21  1  0  0  0  0
 20 28  1  0  0  0  0
 21 22  2  0  0  0  0
 23 29  1  0  0  0  0
 23 21  1  0  0  0  0
 24 19  2  0  0  0  0
 24 23  1  0  0  0  0
 25 16  1  0  0  0  0
 26 17  1  0  0  0  0
 30 32  1  0  0  0  0
 30 31  1  0  0  0  0
 33 30  1  0  0  0  0
 34 33  1  0  0  0  0
 35 33  1  0  0  0  0
 36 33  1  0  0  0  0
 36 37  2  0  0  0  0
 38 36  1  0  0  0  0
 39 38  1  0  0  0  0
 39 44  1  0  0  0  0
 39 43  1  0  0  0  0
 40 39  1  0  0  0  0
 41 40  1  0  0  0  0
 41 42  1  0  0  0  0
 42 38  1  0  0  0  0
 45 40  1  0  0  0  0
 46 40  1  0  0  0  0
 47 41  1  0  0  0  0
 48 41  1  0  0  0  0
 49 42  1  0  0  0  0
 50 42  1  0  0  0  0
M  END
>  <MODEL>
20

>  <REMARK>
 VINA RESULT:    -7.824      2.266      9.659
 INTER + INTRA:         -10.801
 INTER:                  -9.969
 INTRA:                  -0.832
 UNBOUND:                -0.690
  Name = 
  5 active torsions:
  status: ('A' for Active; 'I' for Inactive)
    1  A    between atoms: C_2  and  C_19
    2  A    between atoms: N_3  and  C_4
    3  A    between atoms: C_7  and  C_8
    4  A    between atoms: C_8  and  C_9
    5  A    between atoms: C_9  and  C_10
                            x       y       z     vdW  Elec       q    Type
                         _______ _______ _______ _____ _____    ______ ____

>  <TORSDO>
F 5

$$$$
=
 OpenBabel07192307433D

 50 53  0  0  0  0  0  0  0  0999 V2000
    2.3950    7.8920   18.5820 C   0  0  0  0  0  0  0  0  0  0  0  0
    1.7890    8.8680   17.7830 C   0  0  0  0  0  0  0  0  0  0  0  0
    0.8110    9.7180   18.3100 C   0  0  0  0  0  0  0  0  0  0  0  0
    0.4210    9.6060   19.6460 C   0  0  0  0  0  0  0  0  0  0  0  0
    1.0310    8.6330   20.4470 C   0  0  0  0  0  0  0  0  0  0  0  0
    2.0090    7.7820   19.9180 C   0  0  0  0  0  0  0  0  0  0  0  0
    2.0660    8.9890   16.7380 H   0  0  0  0  0  0  0  0  0  0  0  0
    0.3610   10.4730   17.6680 H   0  0  0  0  0  0  0  0  0  0  0  0
    0.7510    8.5240   21.4920 H   0  0  0  0  0  0  0  0  0  0  0  0
    2.4530    7.0470   20.5810 H   0  0  0  0  0  0  0  0  0  0  0  0
    2.4340    4.9480   18.0680 O   0  0  0  0  0  0  0  0  0  0  0  0
    3.3520    5.7140   17.8030 C   0  0  0  0  0  0  0  0  0  0  0  0
    3.3790    7.0850   17.9770 N   0  0  0  0  0  0  0  0  0  0  0  0
    4.1630    7.5810   17.5710 H   0  0  0  0  0  0  0  0  0  0  0  0
    4.5720    5.1480   17.1830 C   0  0  0  0  0  0  0  0  0  0  0  0
    4.4970    4.5740   15.9030 C   0  0  0  0  0  0  0  0  0  0  0  0
    5.6470    4.0500   15.2720 C   0  0  0  0  0  0  0  0  0  0  0  0
    6.8920    4.0780   15.9090 C   0  0  0  0  0  0  0  0  0  0  0  0
    6.9340    4.6260   17.1710 C   0  0  0  0  0  0  0  0  0  0  0  0
    8.0120    4.7480   18.0390 N   0  0  0  0  0  0  0  0  0  0  0  0
    7.5670    5.3170   19.2380 C   0  0  0  0  0  0  0  0  0  0  0  0
    8.2330    5.5390   20.2320 O   0  0  0  0  0  0  0  0  0  0  0  0
    6.1980    5.5740   19.0770 N   0  0  0  0  0  0  0  0  0  0  0  0
    5.8040    5.1460   17.8050 C   0  0  0  0  0  0  0  0  0  0  0  0
    3.5400    4.5370   15.3830 H   0  0  0  0  0  0  0  0  0  0  0  0
    5.5580    3.6150   14.2780 H   0  0  0  0  0  0  0  0  0  0  0  0
    7.7750    3.6700   15.4310 H   0  0  0  0  0  0  0  0  0  0  0  0
    8.9590    4.4410   17.8850 H   0  0  0  0  0  0  0  0  0  0  0  0
    5.6060    5.9070   19.8220 H   0  0  0  0  0  0  0  0  0  0  0  0
   -0.6180   10.5370   20.2280 C   0  0  0  0  0  0  0  0  0  0  0  0
   -1.6210   10.1240   20.0660 H   0  0  0  0  0  0  0  0  0  0  0  0
   -0.4830   10.5630   21.3170 H   0  0  0  0  0  0  0  0  0  0  0  0
   -0.5000   11.9600   19.6790 C   0  0  0  0  0  0  0  0  0  0  0  0
   -0.0650   11.9100   18.6730 H   0  0  0  0  0  0  0  0  0  0  0  0
   -1.4920   12.4170   19.6010 H   0  0  0  0  0  0  0  0  0  0  0  0
    0.4200   12.8470   20.5040 C   0  0  0  0  0  0  0  0  0  0  0  0
    0.2580   13.0220   21.7120 O   0  0  0  0  0  0  0  0  0  0  0  0
    1.4860   13.4050   19.8300 N   0  0  0  0  0  0  0  0  0  0  0  0
    2.4310   14.2750   20.5040 C   0  0  0  0  0  0  0  0  0  0  0  0
    3.2360   14.9040   19.3750 C   0  0  0  0  0  0  0  0  0  0  0  0
    3.2250   13.8200   18.3050 C   0  0  0  0  0  0  0  0  0  0  0  0
    1.8230   13.2380   18.4260 C   0  0  0  0  0  0  0  0  0  0  0  0
    1.9150   15.0170   21.1220 H   0  0  0  0  0  0  0  0  0  0  0  0
    3.0630   13.6520   21.1460 H   0  0  0  0  0  0  0  0  0  0  0  0
    4.2450   15.1910   19.6850 H   0  0  0  0  0  0  0  0  0  0  0  0
    2.7240   15.7980   19.0010 H   0  0  0  0  0  0  0  0  0  0  0  0
    3.4380   14.2040   17.3030 H   0  0  0  0  0  0  0  0  0  0  0  0
    3.9720   13.0540   18.5460 H   0  0  0  0  0  0  0  0  0  0  0  0
    1.1020   13.8130   17.8340 H   0  0  0  0  0  0  0  0  0  0  0  0
    1.7760   12.1870   18.1300 H   0  0  0  0  0  0  0  0  0  0  0  0
  1  6  1  0  0  0  0
  2  3  1  0  0  0  0
  2  1  2  0  0  0  0
  3  4  2  0  0  0  0
  4 30  1  0  0  0  0
  4  5  1  0  0  0  0
  5  9  1  0  0  0  0
  6  5  2  0  0  0  0
  6 10  1  0  0  0  0
  7  2  1  0  0  0  0
  8  3  1  0  0  0  0
 12 13  1  0  0  0  0
 12 11  2  0  0  0  0
 13  1  1  0  0  0  0
 14 13  1  0  0  0  0
 15 12  1  0  0  0  0
 15 24  1  0  0  0  0
 16 15  2  0  0  0  0
 17 16  1  0  0  0  0
 17 18  2  0  0  0  0
 18 19  1  0  0  0  0
 19 24  2  0  0  0  0
 19 20  1  0  0  0  0
 20 21  1  0  0  0  0
 21 22  2  0  0  0  0
 23 21  1  0  0  0  0
 23 29  1  0  0  0  0
 24 23  1  0  0  0  0
 25 16  1  0  0  0  0
 26 17  1  0  0  0  0
 27 18  1  0  0  0  0
 28 20  1  0  0  0  0
 30 32  1  0  0  0  0
 31 30  1  0  0  0  0
 33 30  1  0  0  0  0
 33 36  1  0  0  0  0
 34 33  1  0  0  0  0
 35 33  1  0  0  0  0
 36 37  2  0  0  0  0
 38 36  1  0  0  0  0
 38 39  1  0  0  0  0
 39 43  1  0  0  0  0
 39 44  1  0  0  0  0
 40 45  1  0  0  0  0
 40 39  1  0  0  0  0
 41 42  1  0  0  0  0
 41 48  1  0  0  0  0
 41 40  1  0  0  0  0
 42 38  1  0  0  0  0
 46 40  1  0  0  0  0
 47 41  1  0  0  0  0
 49 42  1  0  0  0  0
 50 42  1  0  0  0  0
M  END
>  <MODEL>
21

>  <REMARK>
 VINA RESULT:    -7.796      2.810      4.261
 INTER + INTRA:         -10.764
 INTER:                  -9.930
 INTRA:                  -0.834
 UNBOUND:                -0.690
  Name = 
  5 active torsions:
  status: ('A' for Active; 'I' for Inactive)
    1  A    between atoms: C_2  and  C_19
    2  A    between atoms: N_3  and  C_4
    3  A    between atoms: C_7  and  C_8
    4  A    between atoms: C_8  and  C_9
    5  A    between atoms: C_9  and  C_10
                            x       y       z     vdW  Elec       q    Type
                         _______ _______ _______ _____ _____    ______ ____

>  <TORSDO>
F 5

$$$$
=
 OpenBabel07192307433D

 50 53  0  0  0  0  0  0  0  0999 V2000
    1.4150    8.5400   19.5540 C   0  0  0  0  0  0  0  0  0  0  0  0
    1.1950    9.4770   18.5390 C   0  0  0  0  0  0  0  0  0  0  0  0
    0.8020   10.7840   18.8450 C   0  0  0  0  0  0  0  0  0  0  0  0
    0.6200   11.1770   20.1730 C   0  0  0  0  0  0  0  0  0  0  0  0
    0.8450   10.2400   21.1880 C   0  0  0  0  0  0  0  0  0  0  0  0
    1.2380    8.9320   20.8810 C   0  0  0  0  0  0  0  0  0  0  0  0
    1.3280    9.2120   17.4920 H   0  0  0  0  0  0  0  0  0  0  0  0
    0.6440   11.4950   18.0350 H   0  0  0  0  0  0  0  0  0  0  0  0
    0.7150   10.5170   22.2320 H   0  0  0  0  0  0  0  0  0  0  0  0
    1.4020    8.2450   21.7050 H   0  0  0  0  0  0  0  0  0  0  0  0
    3.4950    7.6820   17.5860 O   0  0  0  0  0  0  0  0  0  0  0  0
    2.7700    6.9180   18.2110 C   0  0  0  0  0  0  0  0  0  0  0  0
    1.8210    7.2480   19.1610 N   0  0  0  0  0  0  0  0  0  0  0  0
    1.4120    6.4840   19.6840 H   0  0  0  0  0  0  0  0  0  0  0  0
    2.9280    5.4640   17.9810 C   0  0  0  0  0  0  0  0  0  0  0  0
    1.8970    4.5860   18.3560 C   0  0  0  0  0  0  0  0  0  0  0  0
    2.0050    3.1970   18.1270 C   0  0  0  0  0  0  0  0  0  0  0  0
    3.1470    2.6540   17.5280 C   0  0  0  0  0  0  0  0  0  0  0  0
    4.1510    3.5320   17.1900 C   0  0  0  0  0  0  0  0  0  0  0  0
    5.3940    3.2700   16.6250 N   0  0  0  0  0  0  0  0  0  0  0  0
    6.1050    4.4710   16.5170 C   0  0  0  0  0  0  0  0  0  0  0  0
    7.2390    4.6120   16.0970 O   0  0  0  0  0  0  0  0  0  0  0  0
    5.2600    5.4830   16.9940 N   0  0  0  0  0  0  0  0  0  0  0  0
    4.0560    4.9070   17.4130 C   0  0  0  0  0  0  0  0  0  0  0  0
    0.9970    4.9800   18.8260 H   0  0  0  0  0  0  0  0  0  0  0  0
    1.1890    2.5420   18.4250 H   0  0  0  0  0  0  0  0  0  0  0  0
    3.2360    1.5880   17.3570 H   0  0  0  0  0  0  0  0  0  0  0  0
    5.7740    2.3720   16.3740 H   0  0  0  0  0  0  0  0  0  0  0  0
    5.5540    6.4410   17.1080 H   0  0  0  0  0  0  0  0  0  0  0  0
    0.2180   12.5940   20.5110 C   0  0  0  0  0  0  0  0  0  0  0  0
    1.1130   13.2070   20.6700 H   0  0  0  0  0  0  0  0  0  0  0  0
   -0.2830   13.0260   19.6350 H   0  0  0  0  0  0  0  0  0  0  0  0
   -0.7310   12.6620   21.7080 C   0  0  0  0  0  0  0  0  0  0  0  0
   -0.5810   11.7660   22.3230 H   0  0  0  0  0  0  0  0  0  0  0  0
   -0.5020   13.5390   22.3220 H   0  0  0  0  0  0  0  0  0  0  0  0
   -2.1990   12.6720   21.3110 C   0  0  0  0  0  0  0  0  0  0  0  0
   -2.5660   12.5860   20.1390 O   0  0  0  0  0  0  0  0  0  0  0  0
   -3.1060   12.7290   22.3490 N   0  0  0  0  0  0  0  0  0  0  0  0
   -4.5360   12.7520   22.1000 C   0  0  0  0  0  0  0  0  0  0  0  0
   -5.1470   13.1230   23.4450 C   0  0  0  0  0  0  0  0  0  0  0  0
   -4.1580   12.5340   24.4420 C   0  0  0  0  0  0  0  0  0  0  0  0
   -2.8130   12.7800   23.7720 C   0  0  0  0  0  0  0  0  0  0  0  0
   -4.7880   13.4630   21.3080 H   0  0  0  0  0  0  0  0  0  0  0  0
   -4.8380   11.7460   21.7880 H   0  0  0  0  0  0  0  0  0  0  0  0
   -6.1620   12.7360   23.5670 H   0  0  0  0  0  0  0  0  0  0  0  0
   -5.1780   14.2130   23.5540 H   0  0  0  0  0  0  0  0  0  0  0  0
   -4.2250   12.9910   25.4330 H   0  0  0  0  0  0  0  0  0  0  0  0
   -4.3330   11.4570   24.5460 H   0  0  0  0  0  0  0  0  0  0  0  0
   -2.4310   13.7820   24.0020 H   0  0  0  0  0  0  0  0  0  0  0  0
   -2.0610   12.0350   24.0480 H   0  0  0  0  0  0  0  0  0  0  0  0
  1  6  1  0  0  0  0
  2  3  1  0  0  0  0
  2  1  2  0  0  0  0
  3  4  2  0  0  0  0
  4 30  1  0  0  0  0
  4  5  1  0  0  0  0
  5  9  1  0  0  0  0
  6  5  2  0  0  0  0
  6 10  1  0  0  0  0
  7  2  1  0  0  0  0
  8  3  1  0  0  0  0
 11 12  2  0  0  0  0
 12 13  1  0  0  0  0
 13  1  1  0  0  0  0
 13 14  1  0  0  0  0
 15 12  1  0  0  0  0
 15 16  1  0  0  0  0
 16 25  1  0  0  0  0
 17 16  2  0  0  0  0
 17 26  1  0  0  0  0
 18 17  1  0  0  0  0
 19 24  1  0  0  0  0
 19 18  2  0  0  0  0
 20 19  1  0  0  0  0
 21 20  1  0  0  0  0
 21 23  1  0  0  0  0
 22 21  2  0  0  0  0
 23 29  1  0  0  0  0
 23 24  1  0  0  0  0
 24 15  2  0  0  0  0
 27 18  1  0  0  0  0
 28 20  1  0  0  0  0
 30 31  1  0  0  0  0
 30 33  1  0  0  0  0
 32 30  1  0  0  0  0
 33 35  1  0  0  0  0
 33 34  1  0  0  0  0
 36 33  1  0  0  0  0
 36 38  1  0  0  0  0
 37 36  2  0  0  0  0
 38 42  1  0  0  0  0
 39 38  1  0  0  0  0
 39 40  1  0  0  0  0
 40 46  1  0  0  0  0
 40 45  1  0  0  0  0
 40 41  1  0  0  0  0
 41 48  1  0  0  0  0
 41 47  1  0  0  0  0
 42 49  1  0  0  0  0
 42 50  1  0  0  0  0
 42 41  1  0  0  0  0
 43 39  1  0  0  0  0
 44 39  1  0  0  0  0
M  END
>  <MODEL>
22

>  <REMARK>
 VINA RESULT:    -7.747      2.340      3.233
 INTER + INTRA:         -10.702
 INTER:                 -10.012
 INTRA:                  -0.690
 UNBOUND:                -0.690
  Name = 
  5 active torsions:
  status: ('A' for Active; 'I' for Inactive)
    1  A    between atoms: C_2  and  C_19
    2  A    between atoms: N_3  and  C_4
    3  A    between atoms: C_7  and  C_8
    4  A    between atoms: C_8  and  C_9
    5  A    between atoms: C_9  and  C_10
                            x       y       z     vdW  Elec       q    Type
                         _______ _______ _______ _____ _____    ______ ____

>  <TORSDO>
F 5

$$$$
=
 OpenBabel07192307433D

 50 53  0  0  0  0  0  0  0  0999 V2000
    0.3740    9.6710   19.5540 C   0  0  0  0  0  0  0  0  0  0  0  0
    0.7890    9.7170   18.2190 C   0  0  0  0  0  0  0  0  0  0  0  0
    1.7690    8.8400   17.7440 C   0  0  0  0  0  0  0  0  0  0  0  0
    2.3530    7.9010   18.5970 C   0  0  0  0  0  0  0  0  0  0  0  0
    1.9340    7.8520   19.9320 C   0  0  0  0  0  0  0  0  0  0  0  0
    0.9520    8.7300   20.4060 C   0  0  0  0  0  0  0  0  0  0  0  0
    0.3580   10.4320   17.5220 H   0  0  0  0  0  0  0  0  0  0  0  0
    2.0690    8.8930   16.6990 H   0  0  0  0  0  0  0  0  0  0  0  0
    2.3670    7.1280   20.6200 H   0  0  0  0  0  0  0  0  0  0  0  0
    0.6610    8.6490   21.4480 H   0  0  0  0  0  0  0  0  0  0  0  0
    0.5880   12.2580   21.0370 O   0  0  0  0  0  0  0  0  0  0  0  0
   -0.4650   11.7490   20.6710 C   0  0  0  0  0  0  0  0  0  0  0  0
   -0.6280   10.5810   19.9490 N   0  0  0  0  0  0  0  0  0  0  0  0
   -1.5590   10.3810   19.6070 H   0  0  0  0  0  0  0  0  0  0  0  0
   -1.7260   12.4600   20.9810 C   0  0  0  0  0  0  0  0  0  0  0  0
   -2.8160   12.3570   20.1000 C   0  0  0  0  0  0  0  0  0  0  0  0
   -4.0410   13.0000   20.3790 C   0  0  0  0  0  0  0  0  0  0  0  0
   -4.2010   13.7700   21.5370 C   0  0  0  0  0  0  0  0  0  0  0  0
   -3.1120   13.8730   22.3720 C   0  0  0  0  0  0  0  0  0  0  0  0
   -2.9780   14.5910   23.5540 N   0  0  0  0  0  0  0  0  0  0  0  0
   -1.6680   14.4460   24.0270 C   0  0  0  0  0  0  0  0  0  0  0  0
   -1.1890   14.9630   25.0190 O   0  0  0  0  0  0  0  0  0  0  0  0
   -1.0100   13.5940   23.1290 N   0  0  0  0  0  0  0  0  0  0  0  0
   -1.8960   13.2410   22.1060 C   0  0  0  0  0  0  0  0  0  0  0  0
   -2.7190   11.7660   19.1890 H   0  0  0  0  0  0  0  0  0  0  0  0
   -4.8680   12.8980   19.6800 H   0  0  0  0  0  0  0  0  0  0  0  0
   -5.1380   14.2700   21.7510 H   0  0  0  0  0  0  0  0  0  0  0  0
   -3.6690   15.1740   23.9980 H   0  0  0  0  0  0  0  0  0  0  0  0
   -0.0240   13.3870   23.1850 H   0  0  0  0  0  0  0  0  0  0  0  0
    3.3960    6.9340   18.0840 C   0  0  0  0  0  0  0  0  0  0  0  0
    3.8830    7.3490   17.1930 H   0  0  0  0  0  0  0  0  0  0  0  0
    4.1880    6.8520   18.8400 H   0  0  0  0  0  0  0  0  0  0  0  0
    2.8210    5.5430   17.8150 C   0  0  0  0  0  0  0  0  0  0  0  0
    1.7810    5.5220   18.1650 H   0  0  0  0  0  0  0  0  0  0  0  0
    2.8240    5.3360   16.7400 H   0  0  0  0  0  0  0  0  0  0  0  0
    3.5500    4.4370   18.5620 C   0  0  0  0  0  0  0  0  0  0  0  0
    4.7180    4.1350   18.3160 O   0  0  0  0  0  0  0  0  0  0  0  0
    2.8430    3.8230   19.5740 N   0  0  0  0  0  0  0  0  0  0  0  0
    3.4260    2.7480   20.3560 C   0  0  0  0  0  0  0  0  0  0  0  0
    2.2500    2.1600   21.1240 C   0  0  0  0  0  0  0  0  0  0  0  0
    1.3340    3.3610   21.3160 C   0  0  0  0  0  0  0  0  0  0  0  0
    1.4850    4.1160   20.0020 C   0  0  0  0  0  0  0  0  0  0  0  0
    3.9230    2.0160   19.7130 H   0  0  0  0  0  0  0  0  0  0  0  0
    4.1660    3.1890   21.0340 H   0  0  0  0  0  0  0  0  0  0  0  0
    2.5530    1.6960   22.0670 H   0  0  0  0  0  0  0  0  0  0  0  0
    1.7450    1.4020   20.5140 H   0  0  0  0  0  0  0  0  0  0  0  0
    0.2970    3.0810   21.5240 H   0  0  0  0  0  0  0  0  0  0  0  0
    1.6980    3.9760   22.1470 H   0  0  0  0  0  0  0  0  0  0  0  0
    0.8000    3.7290   19.2400 H   0  0  0  0  0  0  0  0  0  0  0  0
    1.3300    5.1930   20.1150 H   0  0  0  0  0  0  0  0  0  0  0  0
  1 13  1  0  0  0  0
  1  6  1  0  0  0  0
  2  1  2  0  0  0  0
  3  2  1  0  0  0  0
  3  4  2  0  0  0  0
  4  5  1  0  0  0  0
  5  6  2  0  0  0  0
  5  9  1  0  0  0  0
  6 10  1  0  0  0  0
  7  2  1  0  0  0  0
  8  3  1  0  0  0  0
 12 15  1  0  0  0  0
 12 11  2  0  0  0  0
 13 12  1  0  0  0  0
 14 13  1  0  0  0  0
 15 24  1  0  0  0  0
 16 17  1  0  0  0  0
 16 15  2  0  0  0  0
 17 18  2  0  0  0  0
 18 27  1  0  0  0  0
 18 19  1  0  0  0  0
 19 20  1  0  0  0  0
 20 28  1  0  0  0  0
 20 21  1  0  0  0  0
 21 22  2  0  0  0  0
 23 29  1  0  0  0  0
 23 21  1  0  0  0  0
 24 19  2  0  0  0  0
 24 23  1  0  0  0  0
 25 16  1  0  0  0  0
 26 17  1  0  0  0  0
 30  4  1  0  0  0  0
 30 32  1  0  0  0  0
 31 30  1  0  0  0  0
 33 30  1  0  0  0  0
 33 34  1  0  0  0  0
 33 36  1  0  0  0  0
 35 33  1  0  0  0  0
 36 38  1  0  0  0  0
 37 36  2  0  0  0  0
 38 42  1  0  0  0  0
 38 39  1  0  0  0  0
 39 44  1  0  0  0  0
 39 40  1  0  0  0  0
 40 41  1  0  0  0  0
 40 45  1  0  0  0  0
 41 47  1  0  0  0  0
 41 48  1  0  0  0  0
 42 50  1  0  0  0  0
 42 41  1  0  0  0  0
 43 39  1  0  0  0  0
 46 40  1  0  0  0  0
 49 42  1  0  0  0  0
M  END
>  <MODEL>
23

>  <REMARK>
 VINA RESULT:    -7.705      2.561      9.618
 INTER + INTRA:         -10.648
 INTER:                  -9.598
 INTRA:                  -1.050
 UNBOUND:                -0.690
  Name = 
  5 active torsions:
  status: ('A' for Active; 'I' for Inactive)
    1  A    between atoms: C_2  and  C_19
    2  A    between atoms: N_3  and  C_4
    3  A    between atoms: C_7  and  C_8
    4  A    between atoms: C_8  and  C_9
    5  A    between atoms: C_9  and  C_10
                            x       y       z     vdW  Elec       q    Type
                         _______ _______ _______ _____ _____    ______ ____

>  <TORSDO>
F 5

$$$$
=
 OpenBabel07192307433D

 50 53  0  0  0  0  0  0  0  0999 V2000
    0.7640   10.3350   20.4680 C   0  0  0  0  0  0  0  0  0  0  0  0
    1.0880    9.1090   21.0620 C   0  0  0  0  0  0  0  0  0  0  0  0
    1.5990    8.0570   20.2980 C   0  0  0  0  0  0  0  0  0  0  0  0
    1.7960    8.2090   18.9230 C   0  0  0  0  0  0  0  0  0  0  0  0
    1.4770    9.4370   18.3300 C   0  0  0  0  0  0  0  0  0  0  0  0
    0.9640   10.4900   19.0970 C   0  0  0  0  0  0  0  0  0  0  0  0
    0.9510    8.9510   22.1300 H   0  0  0  0  0  0  0  0  0  0  0  0
    1.8490    7.1160   20.7860 H   0  0  0  0  0  0  0  0  0  0  0  0
    1.6230    9.5870   17.2620 H   0  0  0  0  0  0  0  0  0  0  0  0
    0.7360   11.4220   18.5890 H   0  0  0  0  0  0  0  0  0  0  0  0
   -1.9620   11.5490   20.6290 O   0  0  0  0  0  0  0  0  0  0  0  0
   -1.0040   11.8950   21.3100 C   0  0  0  0  0  0  0  0  0  0  0  0
    0.2660   11.3480   21.3120 N   0  0  0  0  0  0  0  0  0  0  0  0
    0.8970   11.6600   22.0400 H   0  0  0  0  0  0  0  0  0  0  0  0
   -1.2020   12.9910   22.2840 C   0  0  0  0  0  0  0  0  0  0  0  0
   -0.2800   14.0500   22.3340 C   0  0  0  0  0  0  0  0  0  0  0  0
   -0.4530   15.1250   23.2330 C   0  0  0  0  0  0  0  0  0  0  0  0
   -1.5450   15.1610   24.1080 C   0  0  0  0  0  0  0  0  0  0  0  0
   -2.4220   14.1020   24.0540 C   0  0  0  0  0  0  0  0  0  0  0  0
   -3.5550   13.8610   24.8210 N   0  0  0  0  0  0  0  0  0  0  0  0
   -4.0990   12.6250   24.4510 C   0  0  0  0  0  0  0  0  0  0  0  0
   -5.0740   12.0830   24.9370 O   0  0  0  0  0  0  0  0  0  0  0  0
   -3.2970   12.1270   23.4150 N   0  0  0  0  0  0  0  0  0  0  0  0
   -2.2600   13.0340   23.1700 C   0  0  0  0  0  0  0  0  0  0  0  0
    0.5810   14.0470   21.6660 H   0  0  0  0  0  0  0  0  0  0  0  0
    0.2760   15.9320   23.2460 H   0  0  0  0  0  0  0  0  0  0  0  0
   -1.6780   15.9810   24.8030 H   0  0  0  0  0  0  0  0  0  0  0  0
   -3.9230   14.4320   25.5650 H   0  0  0  0  0  0  0  0  0  0  0  0
   -3.4140   11.2080   23.0170 H   0  0  0  0  0  0  0  0  0  0  0  0
    2.3700    7.0830   18.0950 C   0  0  0  0  0  0  0  0  0  0  0  0
    2.2480    6.1310   18.6250 H   0  0  0  0  0  0  0  0  0  0  0  0
    1.7700    6.9900   17.1810 H   0  0  0  0  0  0  0  0  0  0  0  0
    3.8290    7.3280   17.7080 C   0  0  0  0  0  0  0  0  0  0  0  0
    3.8770    7.5150   16.6280 H   0  0  0  0  0  0  0  0  0  0  0  0
    4.2130    8.2130   18.2260 H   0  0  0  0  0  0  0  0  0  0  0  0
    4.7310    6.1340   17.9790 C   0  0  0  0  0  0  0  0  0  0  0  0
    4.8140    5.6080   19.0900 O   0  0  0  0  0  0  0  0  0  0  0  0
    5.4150    5.6340   16.8910 N   0  0  0  0  0  0  0  0  0  0  0  0
    6.3130    4.5000   17.0210 C   0  0  0  0  0  0  0  0  0  0  0  0
    7.0760    4.4700   15.7040 C   0  0  0  0  0  0  0  0  0  0  0  0
    6.0660    5.0360   14.7130 C   0  0  0  0  0  0  0  0  0  0  0  0
    5.3680    6.1200   15.5220 C   0  0  0  0  0  0  0  0  0  0  0  0
    6.9680    4.6130   17.8890 H   0  0  0  0  0  0  0  0  0  0  0  0
    5.7010    3.6000   17.1490 H   0  0  0  0  0  0  0  0  0  0  0  0
    7.4210    3.4670   15.4390 H   0  0  0  0  0  0  0  0  0  0  0  0
    7.9490    5.1310   15.7600 H   0  0  0  0  0  0  0  0  0  0  0  0
    6.5310    5.4220   13.8010 H   0  0  0  0  0  0  0  0  0  0  0  0
    5.3480    4.2570   14.4300 H   0  0  0  0  0  0  0  0  0  0  0  0
    5.9210    7.0660   15.4810 H   0  0  0  0  0  0  0  0  0  0  0  0
    4.3380    6.2910   15.1980 H   0  0  0  0  0  0  0  0  0  0  0  0
  1  2  1  0  0  0  0
  1 13  1  0  0  0  0
  2  7  1  0  0  0  0
  3  8  1  0  0  0  0
  3  2  2  0  0  0  0
  4  3  1  0  0  0  0
  5  4  2  0  0  0  0
  5  6  1  0  0  0  0
  6  1  2  0  0  0  0
  9  5  1  0  0  0  0
 10  6  1  0  0  0  0
 11 12  2  0  0  0  0
 12 13  1  0  0  0  0
 12 15  1  0  0  0  0
 13 14  1  0  0  0  0
 15 16  2  0  0  0  0
 15 24  1  0  0  0  0
 16 17  1  0  0  0  0
 17 26  1  0  0  0  0
 17 18  2  0  0  0  0
 18 27  1  0  0  0  0
 19 18  1  0  0  0  0
 19 20  1  0  0  0  0
 20 28  1  0  0  0  0
 21 20  1  0  0  0  0
 21 22  2  0  0  0  0
 23 21  1  0  0  0  0
 24 23  1  0  0  0  0
 24 19  2  0  0  0  0
 25 16  1  0  0  0  0
 29 23  1  0  0  0  0
 30 31  1  0  0  0  0
 30  4  1  0  0  0  0
 32 30  1  0  0  0  0
 33 36  1  0  0  0  0
 33 30  1  0  0  0  0
 33 35  1  0  0  0  0
 34 33  1  0  0  0  0
 36 37  2  0  0  0  0
 38 39  1  0  0  0  0
 38 36  1  0  0  0  0
 39 44  1  0  0  0  0
 39 43  1  0  0  0  0
 40 46  1  0  0  0  0
 40 39  1  0  0  0  0
 41 42  1  0  0  0  0
 41 40  1  0  0  0  0
 42 38  1  0  0  0  0
 45 40  1  0  0  0  0
 47 41  1  0  0  0  0
 48 41  1  0  0  0  0
 49 42  1  0  0  0  0
 50 42  1  0  0  0  0
M  END
>  <MODEL>
24

>  <REMARK>
 VINA RESULT:    -7.654      2.974      9.891
 INTER + INTRA:         -10.581
 INTER:                  -9.701
 INTRA:                  -0.880
 UNBOUND:                -0.690
  Name = 
  5 active torsions:
  status: ('A' for Active; 'I' for Inactive)
    1  A    between atoms: C_2  and  C_19
    2  A    between atoms: N_3  and  C_4
    3  A    between atoms: C_7  and  C_8
    4  A    between atoms: C_8  and  C_9
    5  A    between atoms: C_9  and  C_10
                            x       y       z     vdW  Elec       q    Type
                         _______ _______ _______ _____ _____    ______ ____

>  <TORSDO>
F 5

$$$$
=
 OpenBabel07192307433D

 50 53  0  0  0  0  0  0  0  0999 V2000
    1.3350    8.9840   18.7500 C   0  0  0  0  0  0  0  0  0  0  0  0
    0.4210    9.6210   17.9030 C   0  0  0  0  0  0  0  0  0  0  0  0
   -0.4810   10.5650   18.4040 C   0  0  0  0  0  0  0  0  0  0  0  0
   -0.4860   10.8890   19.7630 C   0  0  0  0  0  0  0  0  0  0  0  0
    0.4320   10.2550   20.6090 C   0  0  0  0  0  0  0  0  0  0  0  0
    1.3350    9.3100   20.1070 C   0  0  0  0  0  0  0  0  0  0  0  0
    0.3940    9.3980   16.8390 H   0  0  0  0  0  0  0  0  0  0  0  0
   -1.1760   11.0510   17.7220 H   0  0  0  0  0  0  0  0  0  0  0  0
    0.4560   10.4890   21.6710 H   0  0  0  0  0  0  0  0  0  0  0  0
    2.0270    8.8500   20.8040 H   0  0  0  0  0  0  0  0  0  0  0  0
    2.3390    6.3600   19.7710 O   0  0  0  0  0  0  0  0  0  0  0  0
    2.6750    6.8690   18.7080 C   0  0  0  0  0  0  0  0  0  0  0  0
    2.2170    8.0550   18.1630 N   0  0  0  0  0  0  0  0  0  0  0  0
    2.4930    8.2560   17.2100 H   0  0  0  0  0  0  0  0  0  0  0  0
    3.6460    6.1390   17.8630 C   0  0  0  0  0  0  0  0  0  0  0  0
    4.4790    6.8550   16.9860 C   0  0  0  0  0  0  0  0  0  0  0  0
    5.4350    6.1920   16.1860 C   0  0  0  0  0  0  0  0  0  0  0  0
    5.5730    4.8010   16.2360 C   0  0  0  0  0  0  0  0  0  0  0  0
    4.7310    4.1210   17.0860 C   0  0  0  0  0  0  0  0  0  0  0  0
    4.6230    2.7530   17.3070 N   0  0  0  0  0  0  0  0  0  0  0  0
    3.5860    2.5210   18.2180 C   0  0  0  0  0  0  0  0  0  0  0  0
    3.1910    1.4390   18.6130 O   0  0  0  0  0  0  0  0  0  0  0  0
    3.0800    3.7770   18.5790 N   0  0  0  0  0  0  0  0  0  0  0  0
    3.7820    4.7650   17.8820 C   0  0  0  0  0  0  0  0  0  0  0  0
    4.3920    7.9390   16.9250 H   0  0  0  0  0  0  0  0  0  0  0  0
    6.0680    6.7740   15.5200 H   0  0  0  0  0  0  0  0  0  0  0  0
    6.3000    4.2880   15.6180 H   0  0  0  0  0  0  0  0  0  0  0  0
    5.1510    2.0180   16.8630 H   0  0  0  0  0  0  0  0  0  0  0  0
    2.2660    3.8990   19.1630 H   0  0  0  0  0  0  0  0  0  0  0  0
   -1.4420   11.9250   20.3070 C   0  0  0  0  0  0  0  0  0  0  0  0
   -2.2490   12.1020   19.5860 H   0  0  0  0  0  0  0  0  0  0  0  0
   -1.9290   11.5080   21.1980 H   0  0  0  0  0  0  0  0  0  0  0  0
   -0.7360   13.2270   20.6900 C   0  0  0  0  0  0  0  0  0  0  0  0
   -1.4910   13.9450   21.0330 H   0  0  0  0  0  0  0  0  0  0  0  0
   -0.0370   13.0480   21.5140 H   0  0  0  0  0  0  0  0  0  0  0  0
   -0.0130   13.8840   19.5250 C   0  0  0  0  0  0  0  0  0  0  0  0
   -0.6090   14.3130   18.5370 O   0  0  0  0  0  0  0  0  0  0  0  0
    1.3520   14.0230   19.6620 N   0  0  0  0  0  0  0  0  0  0  0  0
    2.1570   14.6280   18.6160 C   0  0  0  0  0  0  0  0  0  0  0  0
    3.5920   14.3130   19.0140 C   0  0  0  0  0  0  0  0  0  0  0  0
    3.5210   14.2660   20.5340 C   0  0  0  0  0  0  0  0  0  0  0  0
    2.1700   13.6130   20.7910 C   0  0  0  0  0  0  0  0  0  0  0  0
    1.8910   14.2300   17.6320 H   0  0  0  0  0  0  0  0  0  0  0  0
    1.9670   15.7070   18.6280 H   0  0  0  0  0  0  0  0  0  0  0  0
    4.3050   15.0520   18.6390 H   0  0  0  0  0  0  0  0  0  0  0  0
    3.8810   13.3290   18.6260 H   0  0  0  0  0  0  0  0  0  0  0  0
    4.3500   13.7130   20.9860 H   0  0  0  0  0  0  0  0  0  0  0  0
    3.5280   15.2850   20.9370 H   0  0  0  0  0  0  0  0  0  0  0  0
    2.2470   12.5190   20.7730 H   0  0  0  0  0  0  0  0  0  0  0  0
    1.7230   13.9270   21.7380 H   0  0  0  0  0  0  0  0  0  0  0  0
  1  6  1  0  0  0  0
  2  3  1  0  0  0  0
  2  1  2  0  0  0  0
  3  4  2  0  0  0  0
  4 30  1  0  0  0  0
  4  5  1  0  0  0  0
  5  9  1  0  0  0  0
  6  5  2  0  0  0  0
  6 10  1  0  0  0  0
  7  2  1  0  0  0  0
  8  3  1  0  0  0  0
 12 11  2  0  0  0  0
 13 12  1  0  0  0  0
 13  1  1  0  0  0  0
 14 13  1  0  0  0  0
 15 24  1  0  0  0  0
 15 12  1  0  0  0  0
 16 15  2  0  0  0  0
 17 18  2  0  0  0  0
 17 16  1  0  0  0  0
 18 19  1  0  0  0  0
 19 20  1  0  0  0  0
 19 24  2  0  0  0  0
 20 21  1  0  0  0  0
 21 23  1  0  0  0  0
 21 22  2  0  0  0  0
 23 29  1  0  0  0  0
 24 23  1  0  0  0  0
 25 16  1  0  0  0  0
 26 17  1  0  0  0  0
 27 18  1  0  0  0  0
 28 20  1  0  0  0  0
 30 33  1  0  0  0  0
 30 32  1  0  0  0  0
 31 30  1  0  0  0  0
 33 34  1  0  0  0  0
 33 35  1  0  0  0  0
 36 38  1  0  0  0  0
 36 33  1  0  0  0  0
 37 36  2  0  0  0  0
 38 42  1  0  0  0  0
 39 44  1  0  0  0  0
 39 40  1  0  0  0  0
 39 38  1  0  0  0  0
 40 41  1  0  0  0  0
 41 42  1  0  0  0  0
 41 48  1  0  0  0  0
 41 47  1  0  0  0  0
 42 50  1  0  0  0  0
 43 39  1  0  0  0  0
 45 40  1  0  0  0  0
 46 40  1  0  0  0  0
 49 42  1  0  0  0  0
M  END
>  <MODEL>
25

>  <REMARK>
 VINA RESULT:    -7.640      2.750      4.145
 INTER + INTRA:         -10.563
 INTER:                  -9.625
 INTRA:                  -0.938
 UNBOUND:                -0.690
  Name = 
  5 active torsions:
  status: ('A' for Active; 'I' for Inactive)
    1  A    between atoms: C_2  and  C_19
    2  A    between atoms: N_3  and  C_4
    3  A    between atoms: C_7  and  C_8
    4  A    between atoms: C_8  and  C_9
    5  A    between atoms: C_9  and  C_10
                            x       y       z     vdW  Elec       q    Type
                         _______ _______ _______ _____ _____    ______ ____

>  <TORSDO>
F 5

$$$$
=
 OpenBabel07192307433D

 50 53  0  0  0  0  0  0  0  0999 V2000
    2.1080    7.8650   18.3670 C   0  0  0  0  0  0  0  0  0  0  0  0
    3.0390    7.8040   17.3240 C   0  0  0  0  0  0  0  0  0  0  0  0
    4.1800    7.0010   17.4290 C   0  0  0  0  0  0  0  0  0  0  0  0
    4.4100    6.2450   18.5810 C   0  0  0  0  0  0  0  0  0  0  0  0
    3.4770    6.3030   19.6220 C   0  0  0  0  0  0  0  0  0  0  0  0
    2.3350    7.1070   19.5160 C   0  0  0  0  0  0  0  0  0  0  0  0
    2.8960    8.3760   16.4100 H   0  0  0  0  0  0  0  0  0  0  0  0
    4.8840    6.9670   16.6000 H   0  0  0  0  0  0  0  0  0  0  0  0
    3.6260    5.7220   20.5300 H   0  0  0  0  0  0  0  0  0  0  0  0
    1.6410    7.1140   20.3500 H   0  0  0  0  0  0  0  0  0  0  0  0
    1.1600   10.2360   19.9210 O   0  0  0  0  0  0  0  0  0  0  0  0
    0.5750    9.7540   18.9590 C   0  0  0  0  0  0  0  0  0  0  0  0
    0.9800    8.6890   18.1770 N   0  0  0  0  0  0  0  0  0  0  0  0
    0.4480    8.5120   17.3340 H   0  0  0  0  0  0  0  0  0  0  0  0
   -0.6930   10.3850   18.5290 C   0  0  0  0  0  0  0  0  0  0  0  0
   -1.3370    9.9260   17.3670 C   0  0  0  0  0  0  0  0  0  0  0  0
   -2.5610   10.4880   16.9430 C   0  0  0  0  0  0  0  0  0  0  0  0
   -3.1630   11.5250   17.6630 C   0  0  0  0  0  0  0  0  0  0  0  0
   -2.5020   11.9700   18.7850 C   0  0  0  0  0  0  0  0  0  0  0  0
   -2.8450   12.9970   19.6570 N   0  0  0  0  0  0  0  0  0  0  0  0
   -1.8390   13.1280   20.6220 C   0  0  0  0  0  0  0  0  0  0  0  0
   -1.7940   13.9480   21.5210 O   0  0  0  0  0  0  0  0  0  0  0  0
   -0.8880   12.1370   20.3460 N   0  0  0  0  0  0  0  0  0  0  0  0
   -1.2910   11.4230   19.2140 C   0  0  0  0  0  0  0  0  0  0  0  0
   -0.8890    9.1210   16.7850 H   0  0  0  0  0  0  0  0  0  0  0  0
   -3.0370   10.1090   16.0410 H   0  0  0  0  0  0  0  0  0  0  0  0
   -4.0990   11.9630   17.3380 H   0  0  0  0  0  0  0  0  0  0  0  0
   -3.6480   13.6030   19.6020 H   0  0  0  0  0  0  0  0  0  0  0  0
   -0.0110   12.0590   20.8400 H   0  0  0  0  0  0  0  0  0  0  0  0
    5.6290    5.3580   18.6910 C   0  0  0  0  0  0  0  0  0  0  0  0
    6.2020    5.3940   17.7560 H   0  0  0  0  0  0  0  0  0  0  0  0
    6.2910    5.7790   19.4580 H   0  0  0  0  0  0  0  0  0  0  0  0
    5.2720    3.9220   19.0770 C   0  0  0  0  0  0  0  0  0  0  0  0
    6.1540    3.2880   18.9160 H   0  0  0  0  0  0  0  0  0  0  0  0
    5.0050    3.8720   20.1370 H   0  0  0  0  0  0  0  0  0  0  0  0
    4.1560    3.3310   18.2290 C   0  0  0  0  0  0  0  0  0  0  0  0
    4.2940    3.0960   17.0280 O   0  0  0  0  0  0  0  0  0  0  0  0
    2.9900    3.0210   18.8960 N   0  0  0  0  0  0  0  0  0  0  0  0
    1.8490    2.4580   18.1970 C   0  0  0  0  0  0  0  0  0  0  0  0
    0.7060    2.5570   19.1990 C   0  0  0  0  0  0  0  0  0  0  0  0
    1.4180    2.4280   20.5390 C   0  0  0  0  0  0  0  0  0  0  0  0
    2.7130    3.1960   20.3120 C   0  0  0  0  0  0  0  0  0  0  0  0
    1.6480    3.0000   17.2680 H   0  0  0  0  0  0  0  0  0  0  0  0
    2.0820    1.4150   17.9590 H   0  0  0  0  0  0  0  0  0  0  0  0
   -0.0580    1.7910   19.0420 H   0  0  0  0  0  0  0  0  0  0  0  0
    0.2280    3.5410   19.1270 H   0  0  0  0  0  0  0  0  0  0  0  0
    0.8330    2.8240   21.3750 H   0  0  0  0  0  0  0  0  0  0  0  0
    1.6380    1.3730   20.7420 H   0  0  0  0  0  0  0  0  0  0  0  0
    2.5780    4.2670   20.5000 H   0  0  0  0  0  0  0  0  0  0  0  0
    3.5380    2.8230   20.9250 H   0  0  0  0  0  0  0  0  0  0  0  0
  1  6  1  0  0  0  0
  2  3  1  0  0  0  0
  2  1  2  0  0  0  0
  3  4  2  0  0  0  0
  4 30  1  0  0  0  0
  4  5  1  0  0  0  0
  5  9  1  0  0  0  0
  6  5  2  0  0  0  0
  6 10  1  0  0  0  0
  7  2  1  0  0  0  0
  8  3  1  0  0  0  0
 12 11  2  0  0  0  0
 13  1  1  0  0  0  0
 13 12  1  0  0  0  0
 14 13  1  0  0  0  0
 15 12  1  0  0  0  0
 15 24  1  0  0  0  0
 16 15  2  0  0  0  0
 17 16  1  0  0  0  0
 17 18  2  0  0  0  0
 18 19  1  0  0  0  0
 19 24  2  0  0  0  0
 19 20  1  0  0  0  0
 20 21  1  0  0  0  0
 21 22  2  0  0  0  0
 23 21  1  0  0  0  0
 23 29  1  0  0  0  0
 24 23  1  0  0  0  0
 25 16  1  0  0  0  0
 26 17  1  0  0  0  0
 27 18  1  0  0  0  0
 28 20  1  0  0  0  0
 30 33  1  0  0  0  0
 30 32  1  0  0  0  0
 31 30  1  0  0  0  0
 33 35  1  0  0  0  0
 34 33  1  0  0  0  0
 36 38  1  0  0  0  0
 36 33  1  0  0  0  0
 37 36  2  0  0  0  0
 38 42  1  0  0  0  0
 39 38  1  0  0  0  0
 39 40  1  0  0  0  0
 40 41  1  0  0  0  0
 41 48  1  0  0  0  0
 41 47  1  0  0  0  0
 42 49  1  0  0  0  0
 42 41  1  0  0  0  0
 42 50  1  0  0  0  0
 43 39  1  0  0  0  0
 44 39  1  0  0  0  0
 45 40  1  0  0  0  0
 46 40  1  0  0  0  0
M  END
>  <MODEL>
26

>  <REMARK>
 VINA RESULT:    -7.606      2.042      9.121
 INTER + INTRA:         -10.520
 INTER:                  -9.792
 INTRA:                  -0.727
 UNBOUND:                -0.690
  Name = 
  5 active torsions:
  status: ('A' for Active; 'I' for Inactive)
    1  A    between atoms: C_2  and  C_19
    2  A    between atoms: N_3  and  C_4
    3  A    between atoms: C_7  and  C_8
    4  A    between atoms: C_8  and  C_9
    5  A    between atoms: C_9  and  C_10
                            x       y       z     vdW  Elec       q    Type
                         _______ _______ _______ _____ _____    ______ ____

>  <TORSDO>
F 5

$$$$
=
 OpenBabel07192307433D

 50 53  0  0  0  0  0  0  0  0999 V2000
    2.3490    7.6310   18.2940 C   0  0  0  0  0  0  0  0  0  0  0  0
    3.3970    7.8480   17.3930 C   0  0  0  0  0  0  0  0  0  0  0  0
    4.4150    6.9020   17.2380 C   0  0  0  0  0  0  0  0  0  0  0  0
    4.4040    5.7200   17.9830 C   0  0  0  0  0  0  0  0  0  0  0  0
    3.3520    5.5010   18.8810 C   0  0  0  0  0  0  0  0  0  0  0  0
    2.3340    6.4490   19.0360 C   0  0  0  0  0  0  0  0  0  0  0  0
    3.4420    8.7540   16.7930 H   0  0  0  0  0  0  0  0  0  0  0  0
    5.2150    7.0930   16.5240 H   0  0  0  0  0  0  0  0  0  0  0  0
    3.3140    4.5890   19.4720 H   0  0  0  0  0  0  0  0  0  0  0  0
    1.5410    6.2300   19.7420 H   0  0  0  0  0  0  0  0  0  0  0  0
    1.2740    9.0860   20.6730 O   0  0  0  0  0  0  0  0  0  0  0  0
    0.8760    9.2380   19.5250 C   0  0  0  0  0  0  0  0  0  0  0  0
    1.3570    8.6290   18.3810 N   0  0  0  0  0  0  0  0  0  0  0  0
    1.0080    8.9770   17.4970 H   0  0  0  0  0  0  0  0  0  0  0  0
   -0.2160   10.2100   19.2900 C   0  0  0  0  0  0  0  0  0  0  0  0
   -0.8150   10.2880   18.0210 C   0  0  0  0  0  0  0  0  0  0  0  0
   -1.8750   11.1850   17.7710 C   0  0  0  0  0  0  0  0  0  0  0  0
   -2.3540   12.0310   18.7770 C   0  0  0  0  0  0  0  0  0  0  0  0
   -1.7370   11.9500   20.0050 C   0  0  0  0  0  0  0  0  0  0  0  0
   -1.9780   12.6870   21.1590 N   0  0  0  0  0  0  0  0  0  0  0  0
   -1.0620   12.2990   22.1440 C   0  0  0  0  0  0  0  0  0  0  0  0
   -0.9610   12.7570   23.2670 O   0  0  0  0  0  0  0  0  0  0  0  0
   -0.2760   11.2830   21.5830 N   0  0  0  0  0  0  0  0  0  0  0  0
   -0.6870   11.0680   20.2640 C   0  0  0  0  0  0  0  0  0  0  0  0
   -0.4600    9.6430   17.2180 H   0  0  0  0  0  0  0  0  0  0  0  0
   -2.3210   11.2200   16.7790 H   0  0  0  0  0  0  0  0  0  0  0  0
   -3.1640   12.7250   18.5870 H   0  0  0  0  0  0  0  0  0  0  0  0
   -2.6540   13.4230   21.2840 H   0  0  0  0  0  0  0  0  0  0  0  0
    0.5220   10.8790   22.0510 H   0  0  0  0  0  0  0  0  0  0  0  0
    5.4880    4.6830   17.8020 C   0  0  0  0  0  0  0  0  0  0  0  0
    6.4510    5.0890   18.1370 H   0  0  0  0  0  0  0  0  0  0  0  0
    5.2730    3.8430   18.4750 H   0  0  0  0  0  0  0  0  0  0  0  0
    5.5650    4.1630   16.3670 C   0  0  0  0  0  0  0  0  0  0  0  0
    5.7870    3.0890   16.3960 H   0  0  0  0  0  0  0  0  0  0  0  0
    4.6020    4.2990   15.8640 H   0  0  0  0  0  0  0  0  0  0  0  0
    6.6750    4.8100   15.5520 C   0  0  0  0  0  0  0  0  0  0  0  0
    7.5320    5.5320   16.0620 O   0  0  0  0  0  0  0  0  0  0  0  0
    6.7000    4.4960   14.2090 N   0  0  0  0  0  0  0  0  0  0  0  0
    7.7060    5.0550   13.3240 C   0  0  0  0  0  0  0  0  0  0  0  0
    7.2060    4.7200   11.9250 C   0  0  0  0  0  0  0  0  0  0  0  0
    6.4520    3.4130   12.1380 C   0  0  0  0  0  0  0  0  0  0  0  0
    5.7880    3.6210   13.4920 C   0  0  0  0  0  0  0  0  0  0  0  0
    7.8220    6.1310   13.4870 H   0  0  0  0  0  0  0  0  0  0  0  0
    8.6570    4.5560   13.5380 H   0  0  0  0  0  0  0  0  0  0  0  0
    8.0170    4.6350   11.1970 H   0  0  0  0  0  0  0  0  0  0  0  0
    6.5120    5.4950   11.5790 H   0  0  0  0  0  0  0  0  0  0  0  0
    5.7320    3.1990   11.3430 H   0  0  0  0  0  0  0  0  0  0  0  0
    7.1630    2.5800   12.1920 H   0  0  0  0  0  0  0  0  0  0  0  0
    4.8300    4.1430   13.3890 H   0  0  0  0  0  0  0  0  0  0  0  0
    5.6320    2.6840   14.0330 H   0  0  0  0  0  0  0  0  0  0  0  0
  1 13  1  0  0  0  0
  1  6  1  0  0  0  0
  2  1  2  0  0  0  0
  3  2  1  0  0  0  0
  3  4  2  0  0  0  0
  4  5  1  0  0  0  0
  5  6  2  0  0  0  0
  5  9  1  0  0  0  0
  6 10  1  0  0  0  0
  7  2  1  0  0  0  0
  8  3  1  0  0  0  0
 12 11  2  0  0  0  0
 13 12  1  0  0  0  0
 14 13  1  0  0  0  0
 15 12  1  0  0  0  0
 15 24  1  0  0  0  0
 16 15  2  0  0  0  0
 17 16  1  0  0  0  0
 17 18  2  0  0  0  0
 18 19  1  0  0  0  0
 19 24  2  0  0  0  0
 19 20  1  0  0  0  0
 20 28  1  0  0  0  0
 20 21  1  0  0  0  0
 21 22  2  0  0  0  0
 23 29  1  0  0  0  0
 23 21  1  0  0  0  0
 24 23  1  0  0  0  0
 25 16  1  0  0  0  0
 26 17  1  0  0  0  0
 27 18  1  0  0  0  0
 30  4  1  0  0  0  0
 30 31  1  0  0  0  0
 30 32  1  0  0  0  0
 33 34  1  0  0  0  0
 33 30  1  0  0  0  0
 35 33  1  0  0  0  0
 36 37  2  0  0  0  0
 36 33  1  0  0  0  0
 38 36  1  0  0  0  0
 39 43  1  0  0  0  0
 39 44  1  0  0  0  0
 39 38  1  0  0  0  0
 40 41  1  0  0  0  0
 40 39  1  0  0  0  0
 41 48  1  0  0  0  0
 41 42  1  0  0  0  0
 42 50  1  0  0  0  0
 42 38  1  0  0  0  0
 45 40  1  0  0  0  0
 46 40  1  0  0  0  0
 47 41  1  0  0  0  0
 49 42  1  0  0  0  0
M  END
>  <MODEL>
27

>  <REMARK>
 VINA RESULT:    -7.604      3.165      9.771
 INTER + INTRA:         -10.517
 INTER:                  -9.737
 INTRA:                  -0.780
 UNBOUND:                -0.690
  Name = 
  5 active torsions:
  status: ('A' for Active; 'I' for Inactive)
    1  A    between atoms: C_2  and  C_19
    2  A    between atoms: N_3  and  C_4
    3  A    between atoms: C_7  and  C_8
    4  A    between atoms: C_8  and  C_9
    5  A    between atoms: C_9  and  C_10
                            x       y       z     vdW  Elec       q    Type
                         _______ _______ _______ _____ _____    ______ ____

>  <TORSDO>
F 5

$$$$
=
 OpenBabel07192307433D

 50 53  0  0  0  0  0  0  0  0999 V2000
    8.1410    9.2940   17.9780 C   0  0  0  0  0  0  0  0  0  0  0  0
    7.8810   10.5120   17.3400 C   0  0  0  0  0  0  0  0  0  0  0  0
    8.4260   11.7050   17.8260 C   0  0  0  0  0  0  0  0  0  0  0  0
    9.2400   11.7020   18.9610 C   0  0  0  0  0  0  0  0  0  0  0  0
    9.5050   10.4820   19.5960 C   0  0  0  0  0  0  0  0  0  0  0  0
    8.9580    9.2890   19.1080 C   0  0  0  0  0  0  0  0  0  0  0  0
    7.2530   10.5580   16.4530 H   0  0  0  0  0  0  0  0  0  0  0  0
    8.2130   12.6380   17.3060 H   0  0  0  0  0  0  0  0  0  0  0  0
   10.1390   10.4470   20.4790 H   0  0  0  0  0  0  0  0  0  0  0  0
    9.1970    8.3710   19.6360 H   0  0  0  0  0  0  0  0  0  0  0  0
    8.0670    6.4840   18.9930 O   0  0  0  0  0  0  0  0  0  0  0  0
    7.5980    6.8510   17.9230 C   0  0  0  0  0  0  0  0  0  0  0  0
    7.5640    8.1370   17.4170 N   0  0  0  0  0  0  0  0  0  0  0  0
    7.0100    8.2860   16.5820 H   0  0  0  0  0  0  0  0  0  0  0  0
    6.9460    5.8360   17.0640 C   0  0  0  0  0  0  0  0  0  0  0  0
    7.2340    5.8010   15.6890 C   0  0  0  0  0  0  0  0  0  0  0  0
    6.6510    4.8300   14.8480 C   0  0  0  0  0  0  0  0  0  0  0  0
    5.7590    3.8800   15.3570 C   0  0  0  0  0  0  0  0  0  0  0  0
    5.4770    3.9490   16.7020 C   0  0  0  0  0  0  0  0  0  0  0  0
    4.6110    3.1670   17.4580 N   0  0  0  0  0  0  0  0  0  0  0  0
    4.6030    3.6440   18.7750 C   0  0  0  0  0  0  0  0  0  0  0  0
    3.9350    3.2200   19.7000 O   0  0  0  0  0  0  0  0  0  0  0  0
    5.5090    4.7120   18.8210 N   0  0  0  0  0  0  0  0  0  0  0  0
    6.0470    4.9050   17.5440 C   0  0  0  0  0  0  0  0  0  0  0  0
    7.9240    6.5310   15.2650 H   0  0  0  0  0  0  0  0  0  0  0  0
    6.8970    4.8260   13.7880 H   0  0  0  0  0  0  0  0  0  0  0  0
    5.3040    3.1370   14.7130 H   0  0  0  0  0  0  0  0  0  0  0  0
    4.0290    2.4110   17.1350 H   0  0  0  0  0  0  0  0  0  0  0  0
    5.6370    5.2950   19.6340 H   0  0  0  0  0  0  0  0  0  0  0  0
    9.8510   12.9840   19.4770 C   0  0  0  0  0  0  0  0  0  0  0  0
   10.9080   13.0360   19.1880 H   0  0  0  0  0  0  0  0  0  0  0  0
    9.3650   13.8250   18.9650 H   0  0  0  0  0  0  0  0  0  0  0  0
    9.6710   13.1510   20.9860 C   0  0  0  0  0  0  0  0  0  0  0  0
    9.8030   12.1710   21.4630 H   0  0  0  0  0  0  0  0  0  0  0  0
   10.4330   13.8290   21.3840 H   0  0  0  0  0  0  0  0  0  0  0  0
    8.2840   13.6380   21.3760 C   0  0  0  0  0  0  0  0  0  0  0  0
    7.6590   14.4560   20.7010 O   0  0  0  0  0  0  0  0  0  0  0  0
    7.7380   13.0660   22.5060 N   0  0  0  0  0  0  0  0  0  0  0  0
    6.4230   13.4510   22.9850 C   0  0  0  0  0  0  0  0  0  0  0  0
    6.3350   12.8410   24.3770 C   0  0  0  0  0  0  0  0  0  0  0  0
    7.2000   11.5930   24.2570 C   0  0  0  0  0  0  0  0  0  0  0  0
    8.3400   12.0560   23.3600 C   0  0  0  0  0  0  0  0  0  0  0  0
    6.3080   14.5400   22.9900 H   0  0  0  0  0  0  0  0  0  0  0  0
    5.6790   13.0160   22.3100 H   0  0  0  0  0  0  0  0  0  0  0  0
    5.3070   12.6240   24.6780 H   0  0  0  0  0  0  0  0  0  0  0  0
    6.7720   13.5240   25.1150 H   0  0  0  0  0  0  0  0  0  0  0  0
    7.5490   11.2180   25.2230 H   0  0  0  0  0  0  0  0  0  0  0  0
    6.6330   10.7960   23.7620 H   0  0  0  0  0  0  0  0  0  0  0  0
    9.1350   12.5360   23.9430 H   0  0  0  0  0  0  0  0  0  0  0  0
    8.7680   11.2420   22.7680 H   0  0  0  0  0  0  0  0  0  0  0  0
  1  6  1  0  0  0  0
  2  3  1  0  0  0  0
  2  1  2  0  0  0  0
  3  4  2  0  0  0  0
  4 30  1  0  0  0  0
  4  5  1  0  0  0  0
  5  9  1  0  0  0  0
  6  5  2  0  0  0  0
  6 10  1  0  0  0  0
  7  2  1  0  0  0  0
  8  3  1  0  0  0  0
 12 11  2  0  0  0  0
 13 12  1  0  0  0  0
 13  1  1  0  0  0  0
 14 13  1  0  0  0  0
 15 24  1  0  0  0  0
 15 12  1  0  0  0  0
 16 15  2  0  0  0  0
 17 18  2  0  0  0  0
 17 16  1  0  0  0  0
 18 19  1  0  0  0  0
 19 20  1  0  0  0  0
 19 24  2  0  0  0  0
 20 21  1  0  0  0  0
 21 23  1  0  0  0  0
 21 22  2  0  0  0  0
 23 29  1  0  0  0  0
 24 23  1  0  0  0  0
 25 16  1  0  0  0  0
 26 17  1  0  0  0  0
 27 18  1  0  0  0  0
 28 20  1  0  0  0  0
 30 33  1  0  0  0  0
 31 30  1  0  0  0  0
 32 30  1  0  0  0  0
 33 36  1  0  0  0  0
 33 35  1  0  0  0  0
 33 34  1  0  0  0  0
 36 38  1  0  0  0  0
 37 36  2  0  0  0  0
 38 39  1  0  0  0  0
 38 42  1  0  0  0  0
 39 43  1  0  0  0  0
 39 40  1  0  0  0  0
 40 45  1  0  0  0  0
 40 46  1  0  0  0  0
 41 40  1  0  0  0  0
 41 47  1  0  0  0  0
 42 49  1  0  0  0  0
 42 41  1  0  0  0  0
 44 39  1  0  0  0  0
 48 41  1  0  0  0  0
 50 42  1  0  0  0  0
M  END
>  <MODEL>
28

>  <REMARK>
 VINA RESULT:    -7.587      6.931      8.504
 INTER + INTRA:         -10.494
 INTER:                  -9.804
 INTRA:                  -0.690
 UNBOUND:                -0.690
  Name = 
  5 active torsions:
  status: ('A' for Active; 'I' for Inactive)
    1  A    between atoms: C_2  and  C_19
    2  A    between atoms: N_3  and  C_4
    3  A    between atoms: C_7  and  C_8
    4  A    between atoms: C_8  and  C_9
    5  A    between atoms: C_9  and  C_10
                            x       y       z     vdW  Elec       q    Type
                         _______ _______ _______ _____ _____    ______ ____

>  <TORSDO>
F 5

$$$$
=
 OpenBabel07192307433D

 50 53  0  0  0  0  0  0  0  0999 V2000
    1.4970    9.2720   18.1170 C   0  0  0  0  0  0  0  0  0  0  0  0
    2.4390   10.3020   18.0200 C   0  0  0  0  0  0  0  0  0  0  0  0
    2.0540   11.6390   18.1590 C   0  0  0  0  0  0  0  0  0  0  0  0
    0.7180   11.9710   18.3970 C   0  0  0  0  0  0  0  0  0  0  0  0
   -0.2240   10.9400   18.4980 C   0  0  0  0  0  0  0  0  0  0  0  0
    0.1630    9.6010   18.3590 C   0  0  0  0  0  0  0  0  0  0  0  0
    3.4890   10.0860   17.8380 H   0  0  0  0  0  0  0  0  0  0  0  0
    2.8080   12.4210   18.0870 H   0  0  0  0  0  0  0  0  0  0  0  0
   -1.2710   11.1660   18.6870 H   0  0  0  0  0  0  0  0  0  0  0  0
   -0.6050    8.8400   18.4490 H   0  0  0  0  0  0  0  0  0  0  0  0
    2.2780    7.2680   20.1920 O   0  0  0  0  0  0  0  0  0  0  0  0
    2.3520    7.0840   18.9830 C   0  0  0  0  0  0  0  0  0  0  0  0
    1.9690    7.9510   17.9770 N   0  0  0  0  0  0  0  0  0  0  0  0
    1.9660    7.5840   17.0340 H   0  0  0  0  0  0  0  0  0  0  0  0
    2.8640    5.7790   18.5080 C   0  0  0  0  0  0  0  0  0  0  0  0
    1.9890    4.8780   17.8770 C   0  0  0  0  0  0  0  0  0  0  0  0
    2.4500    3.6370   17.3890 C   0  0  0  0  0  0  0  0  0  0  0  0
    3.7910    3.2620   17.5290 C   0  0  0  0  0  0  0  0  0  0  0  0
    4.6220    4.1520   18.1690 C   0  0  0  0  0  0  0  0  0  0  0  0
    5.9720    4.0270   18.4760 N   0  0  0  0  0  0  0  0  0  0  0  0
    6.3820    5.1620   19.1870 C   0  0  0  0  0  0  0  0  0  0  0  0
    7.4900    5.3750   19.6440 O   0  0  0  0  0  0  0  0  0  0  0  0
    5.2650    6.0020   19.2810 N   0  0  0  0  0  0  0  0  0  0  0  0
    4.1780    5.3830   18.6570 C   0  0  0  0  0  0  0  0  0  0  0  0
    0.9380    5.1430   17.7570 H   0  0  0  0  0  0  0  0  0  0  0  0
    1.7490    2.9620   16.9010 H   0  0  0  0  0  0  0  0  0  0  0  0
    4.1470    2.3080   17.1610 H   0  0  0  0  0  0  0  0  0  0  0  0
    6.5730    3.2430   18.2830 H   0  0  0  0  0  0  0  0  0  0  0  0
    5.2580    6.8560   19.8190 H   0  0  0  0  0  0  0  0  0  0  0  0
    0.2990   13.4130   18.5710 C   0  0  0  0  0  0  0  0  0  0  0  0
    0.9380   14.0630   17.9610 H   0  0  0  0  0  0  0  0  0  0  0  0
   -0.7130   13.5270   18.1620 H   0  0  0  0  0  0  0  0  0  0  0  0
    0.2940   13.8460   20.0380 C   0  0  0  0  0  0  0  0  0  0  0  0
    0.9600   13.1800   20.6000 H   0  0  0  0  0  0  0  0  0  0  0  0
    0.6750   14.8680   20.1300 H   0  0  0  0  0  0  0  0  0  0  0  0
   -1.0760   13.7380   20.6910 C   0  0  0  0  0  0  0  0  0  0  0  0
   -2.0100   14.4800   20.3890 O   0  0  0  0  0  0  0  0  0  0  0  0
   -1.2290   12.7190   21.6080 N   0  0  0  0  0  0  0  0  0  0  0  0
   -2.4860   12.5150   22.3040 C   0  0  0  0  0  0  0  0  0  0  0  0
   -2.1480   11.5280   23.4130 C   0  0  0  0  0  0  0  0  0  0  0  0
   -1.0200   10.7060   22.8030 C   0  0  0  0  0  0  0  0  0  0  0  0
   -0.2320   11.7440   22.0150 C   0  0  0  0  0  0  0  0  0  0  0  0
   -2.8850   13.4610   22.6850 H   0  0  0  0  0  0  0  0  0  0  0  0
   -3.2000   12.0870   21.5920 H   0  0  0  0  0  0  0  0  0  0  0  0
   -3.0070   10.9220   23.7140 H   0  0  0  0  0  0  0  0  0  0  0  0
   -1.7800   12.0650   24.2950 H   0  0  0  0  0  0  0  0  0  0  0  0
   -0.4100   10.1920   23.5520 H   0  0  0  0  0  0  0  0  0  0  0  0
   -1.4360    9.9540   22.1220 H   0  0  0  0  0  0  0  0  0  0  0  0
    0.5000   12.2550   22.6520 H   0  0  0  0  0  0  0  0  0  0  0  0
    0.2800   11.3150   21.1490 H   0  0  0  0  0  0  0  0  0  0  0  0
  1  6  1  0  0  0  0
  2  1  2  0  0  0  0
  2  3  1  0  0  0  0
  3  4  2  0  0  0  0
  4  5  1  0  0  0  0
  4 30  1  0  0  0  0
  5  9  1  0  0  0  0
  6 10  1  0  0  0  0
  6  5  2  0  0  0  0
  7  2  1  0  0  0  0
  8  3  1  0  0  0  0
 12 11  2  0  0  0  0
 13  1  1  0  0  0  0
 13 12  1  0  0  0  0
 14 13  1  0  0  0  0
 15 24  1  0  0  0  0
 15 12  1  0  0  0  0
 16 15  2  0  0  0  0
 17 18  2  0  0  0  0
 17 16  1  0  0  0  0
 18 19  1  0  0  0  0
 19 20  1  0  0  0  0
 19 24  2  0  0  0  0
 20 21  1  0  0  0  0
 21 23  1  0  0  0  0
 21 22  2  0  0  0  0
 23 29  1  0  0  0  0
 24 23  1  0  0  0  0
 25 16  1  0  0  0  0
 26 17  1  0  0  0  0
 27 18  1  0  0  0  0
 28 20  1  0  0  0  0
 30 33  1  0  0  0  0
 31 30  1  0  0  0  0
 32 30  1  0  0  0  0
 33 35  1  0  0  0  0
 33 34  1  0  0  0  0
 33 36  1  0  0  0  0
 36 38  1  0  0  0  0
 37 36  2  0  0  0  0
 38 42  1  0  0  0  0
 38 39  1  0  0  0  0
 39 43  1  0  0  0  0
 39 40  1  0  0  0  0
 40 45  1  0  0  0  0
 40 46  1  0  0  0  0
 41 40  1  0  0  0  0
 41 47  1  0  0  0  0
 42 49  1  0  0  0  0
 42 41  1  0  0  0  0
 44 39  1  0  0  0  0
 48 41  1  0  0  0  0
 50 42  1  0  0  0  0
M  END
>  <MODEL>
29

>  <REMARK>
 VINA RESULT:    -7.547      2.294      3.265
 INTER + INTRA:         -10.443
 INTER:                  -9.346
 INTRA:                  -1.097
 UNBOUND:                -0.690
  Name = 
  5 active torsions:
  status: ('A' for Active; 'I' for Inactive)
    1  A    between atoms: C_2  and  C_19
    2  A    between atoms: N_3  and  C_4
    3  A    between atoms: C_7  and  C_8
    4  A    between atoms: C_8  and  C_9
    5  A    between atoms: C_9  and  C_10
                            x       y       z     vdW  Elec       q    Type
                         _______ _______ _______ _____ _____    ______ ____

>  <TORSDO>
F 5

$$$$
=
 OpenBabel07192307433D

 50 53  0  0  0  0  0  0  0  0999 V2000
    1.6270    8.3610   19.7450 C   0  0  0  0  0  0  0  0  0  0  0  0
    1.6160    7.2280   20.5660 C   0  0  0  0  0  0  0  0  0  0  0  0
    1.9790    5.9760   20.0610 C   0  0  0  0  0  0  0  0  0  0  0  0
    2.3590    5.8340   18.7240 C   0  0  0  0  0  0  0  0  0  0  0  0
    2.3740    6.9680   17.9050 C   0  0  0  0  0  0  0  0  0  0  0  0
    2.0100    8.2220   18.4110 C   0  0  0  0  0  0  0  0  0  0  0  0
    1.3290    7.2970   21.6130 H   0  0  0  0  0  0  0  0  0  0  0  0
    1.9690    5.1120   20.7240 H   0  0  0  0  0  0  0  0  0  0  0  0
    2.6690    6.8900   16.8600 H   0  0  0  0  0  0  0  0  0  0  0  0
    2.0420    9.0700   17.7350 H   0  0  0  0  0  0  0  0  0  0  0  0
   -0.8240   10.0310   19.3680 O   0  0  0  0  0  0  0  0  0  0  0  0
    0.1210   10.3320   20.0870 C   0  0  0  0  0  0  0  0  0  0  0  0
    1.2590    9.5880   20.3350 N   0  0  0  0  0  0  0  0  0  0  0  0
    1.8730    9.9220   21.0680 H   0  0  0  0  0  0  0  0  0  0  0  0
    0.0510   11.6130   20.8260 C   0  0  0  0  0  0  0  0  0  0  0  0
   -0.8160   11.7340   21.9260 C   0  0  0  0  0  0  0  0  0  0  0  0
   -0.8870   12.9320   22.6680 C   0  0  0  0  0  0  0  0  0  0  0  0
   -0.1030   14.0390   22.3240 C   0  0  0  0  0  0  0  0  0  0  0  0
    0.7210   13.9020   21.2300 C   0  0  0  0  0  0  0  0  0  0  0  0
    1.5690   14.8370   20.6480 N   0  0  0  0  0  0  0  0  0  0  0  0
    2.1640   14.2670   19.5160 C   0  0  0  0  0  0  0  0  0  0  0  0
    2.9350   14.8090   18.7470 O   0  0  0  0  0  0  0  0  0  0  0  0
    1.6910   12.9500   19.4350 N   0  0  0  0  0  0  0  0  0  0  0  0
    0.8000   12.7230   20.4880 C   0  0  0  0  0  0  0  0  0  0  0  0
   -1.4390   10.8890   22.2160 H   0  0  0  0  0  0  0  0  0  0  0  0
   -1.5650   12.9940   23.5170 H   0  0  0  0  0  0  0  0  0  0  0  0
   -0.1600   14.9620   22.8870 H   0  0  0  0  0  0  0  0  0  0  0  0
    1.7150   15.7920   20.9330 H   0  0  0  0  0  0  0  0  0  0  0  0
    1.8960   12.3350   18.6610 H   0  0  0  0  0  0  0  0  0  0  0  0
    2.7750    4.4870   18.1790 C   0  0  0  0  0  0  0  0  0  0  0  0
    2.7990    3.7480   18.9890 H   0  0  0  0  0  0  0  0  0  0  0  0
    1.9940    4.1410   17.4890 H   0  0  0  0  0  0  0  0  0  0  0  0
    4.1070    4.5460   17.4310 C   0  0  0  0  0  0  0  0  0  0  0  0
    4.1990    3.6460   16.8100 H   0  0  0  0  0  0  0  0  0  0  0  0
    4.1300    5.4190   16.7710 H   0  0  0  0  0  0  0  0  0  0  0  0
    5.3150    4.5580   18.3550 C   0  0  0  0  0  0  0  0  0  0  0  0
    5.4930    3.6990   19.2190 O   0  0  0  0  0  0  0  0  0  0  0  0
    6.2350    5.5620   18.1340 N   0  0  0  0  0  0  0  0  0  0  0  0
    7.4270    5.6850   18.9540 C   0  0  0  0  0  0  0  0  0  0  0  0
    7.9890    7.0550   18.5980 C   0  0  0  0  0  0  0  0  0  0  0  0
    7.5630    7.2300   17.1460 C   0  0  0  0  0  0  0  0  0  0  0  0
    6.1760    6.6020   17.1210 C   0  0  0  0  0  0  0  0  0  0  0  0
    7.1870    5.5870   20.0170 H   0  0  0  0  0  0  0  0  0  0  0  0
    8.1160    4.8830   18.6680 H   0  0  0  0  0  0  0  0  0  0  0  0
    9.0720    7.1140   18.7380 H   0  0  0  0  0  0  0  0  0  0  0  0
    7.5180    7.8260   19.2180 H   0  0  0  0  0  0  0  0  0  0  0  0
    7.5590    8.2750   16.8240 H   0  0  0  0  0  0  0  0  0  0  0  0
    8.2410    6.6700   16.4910 H   0  0  0  0  0  0  0  0  0  0  0  0
    5.4080    7.3240   17.4220 H   0  0  0  0  0  0  0  0  0  0  0  0
    5.9190    6.1870   16.1430 H   0  0  0  0  0  0  0  0  0  0  0  0
  1 13  1  0  0  0  0
  1  2  1  0  0  0  0
  2  7  1  0  0  0  0
  3  2  2  0  0  0  0
  3  8  1  0  0  0  0
  4  3  1  0  0  0  0
  5  6  1  0  0  0  0
  5  4  2  0  0  0  0
  6  1  2  0  0  0  0
  9  5  1  0  0  0  0
 10  6  1  0  0  0  0
 11 12  2  0  0  0  0
 12 13  1  0  0  0  0
 12 15  1  0  0  0  0
 13 14  1  0  0  0  0
 15 16  1  0  0  0  0
 16 25  1  0  0  0  0
 16 17  2  0  0  0  0
 17 26  1  0  0  0  0
 18 17  1  0  0  0  0
 18 27  1  0  0  0  0
 19 18  2  0  0  0  0
 20 28  1  0  0  0  0
 20 19  1  0  0  0  0
 21 20  1  0  0  0  0
 22 21  2  0  0  0  0
 23 21  1  0  0  0  0
 23 24  1  0  0  0  0
 24 15  2  0  0  0  0
 24 19  1  0  0  0  0
 29 23  1  0  0  0  0
 30  4  1  0  0  0  0
 30 31  1  0  0  0  0
 32 30  1  0  0  0  0
 33 30  1  0  0  0  0
 33 36  1  0  0  0  0
 34 33  1  0  0  0  0
 35 33  1  0  0  0  0
 36 37  2  0  0  0  0
 38 36  1  0  0  0  0
 38 39  1  0  0  0  0
 39 43  1  0  0  0  0
 40 45  1  0  0  0  0
 40 39  1  0  0  0  0
 40 46  1  0  0  0  0
 41 40  1  0  0  0  0
 42 41  1  0  0  0  0
 42 49  1  0  0  0  0
 42 38  1  0  0  0  0
 44 39  1  0  0  0  0
 47 41  1  0  0  0  0
 48 41  1  0  0  0  0
 50 42  1  0  0  0  0
M  END
>  <MODEL>
30

>  <REMARK>
 VINA RESULT:    -7.542      2.815      9.070
 INTER + INTRA:         -10.436
 INTER:                  -9.525
 INTRA:                  -0.911
 UNBOUND:                -0.690
  Name = 
  5 active torsions:
  status: ('A' for Active; 'I' for Inactive)
    1  A    between atoms: C_2  and  C_19
    2  A    between atoms: N_3  and  C_4
    3  A    between atoms: C_7  and  C_8
    4  A    between atoms: C_8  and  C_9
    5  A    between atoms: C_9  and  C_10
                            x       y       z     vdW  Elec       q    Type
                         _______ _______ _______ _____ _____    ______ ____

>  <TORSDO>
F 5

$$$$
=
 OpenBabel07192307433D

 50 53  0  0  0  0  0  0  0  0999 V2000
    2.4210    8.0720   18.7670 C   0  0  0  0  0  0  0  0  0  0  0  0
    1.8750    8.8740   17.7580 C   0  0  0  0  0  0  0  0  0  0  0  0
    0.7410    9.6550   18.0020 C   0  0  0  0  0  0  0  0  0  0  0  0
    0.1310    9.6480   19.2590 C   0  0  0  0  0  0  0  0  0  0  0  0
    0.6810    8.8500   20.2680 C   0  0  0  0  0  0  0  0  0  0  0  0
    1.8160    8.0670   20.0240 C   0  0  0  0  0  0  0  0  0  0  0  0
    2.3200    8.9090   16.7670 H   0  0  0  0  0  0  0  0  0  0  0  0
    0.3410   10.2760   17.2010 H   0  0  0  0  0  0  0  0  0  0  0  0
    0.2310    8.8260   21.2590 H   0  0  0  0  0  0  0  0  0  0  0  0
    2.2040    7.4680   20.8410 H   0  0  0  0  0  0  0  0  0  0  0  0
    2.6890    5.2540   17.8050 O   0  0  0  0  0  0  0  0  0  0  0  0
    3.6290    6.0040   18.0370 C   0  0  0  0  0  0  0  0  0  0  0  0
    3.5710    7.3240   18.4430 N   0  0  0  0  0  0  0  0  0  0  0  0
    4.4430    7.8390   18.4510 H   0  0  0  0  0  0  0  0  0  0  0  0
    5.0000    5.4840   17.8300 C   0  0  0  0  0  0  0  0  0  0  0  0
    5.9330    5.5480   18.8790 C   0  0  0  0  0  0  0  0  0  0  0  0
    7.2400    5.0380   18.7230 C   0  0  0  0  0  0  0  0  0  0  0  0
    7.6480    4.4640   17.5140 C   0  0  0  0  0  0  0  0  0  0  0  0
    6.7230    4.4330   16.4960 C   0  0  0  0  0  0  0  0  0  0  0  0
    6.8640    3.9620   15.1950 N   0  0  0  0  0  0  0  0  0  0  0  0
    5.6720    4.1920   14.4980 C   0  0  0  0  0  0  0  0  0  0  0  0
    5.4510    3.9370   13.3290 O   0  0  0  0  0  0  0  0  0  0  0  0
    4.7830    4.7820   15.4060 N   0  0  0  0  0  0  0  0  0  0  0  0
    5.4280    4.9350   16.6380 C   0  0  0  0  0  0  0  0  0  0  0  0
    5.6430    5.9930   19.8310 H   0  0  0  0  0  0  0  0  0  0  0  0
    7.9380    5.0990   19.5550 H   0  0  0  0  0  0  0  0  0  0  0  0
    8.6520    4.0770   17.3890 H   0  0  0  0  0  0  0  0  0  0  0  0
    7.6890    3.5660   14.7750 H   0  0  0  0  0  0  0  0  0  0  0  0
    3.8730    5.1300   15.1430 H   0  0  0  0  0  0  0  0  0  0  0  0
   -1.0800   10.5090   19.5340 C   0  0  0  0  0  0  0  0  0  0  0  0
   -1.9230   10.1750   18.9160 H   0  0  0  0  0  0  0  0  0  0  0  0
   -1.3910   10.3390   20.5730 H   0  0  0  0  0  0  0  0  0  0  0  0
   -0.7950   11.9980   19.3390 C   0  0  0  0  0  0  0  0  0  0  0  0
   -0.3680   12.1440   18.3390 H   0  0  0  0  0  0  0  0  0  0  0  0
   -1.7260   12.5710   19.4000 H   0  0  0  0  0  0  0  0  0  0  0  0
    0.2230   12.5490   20.3260 C   0  0  0  0  0  0  0  0  0  0  0  0
    0.0920   12.4300   21.5450 O   0  0  0  0  0  0  0  0  0  0  0  0
    1.3370   13.1470   19.7750 N   0  0  0  0  0  0  0  0  0  0  0  0
    2.3780   13.7170   20.6110 C   0  0  0  0  0  0  0  0  0  0  0  0
    3.2360   14.5240   19.6470 C   0  0  0  0  0  0  0  0  0  0  0  0
    3.0980   13.7530   18.3410 C   0  0  0  0  0  0  0  0  0  0  0  0
    1.6430   13.3060   18.3630 C   0  0  0  0  0  0  0  0  0  0  0  0
    1.9500   14.3270   21.4130 H   0  0  0  0  0  0  0  0  0  0  0  0
    2.9440   12.8900   21.0540 H   0  0  0  0  0  0  0  0  0  0  0  0
    4.2730   14.6180   19.9830 H   0  0  0  0  0  0  0  0  0  0  0  0
    2.8210   15.5320   19.5280 H   0  0  0  0  0  0  0  0  0  0  0  0
    3.3420   14.3530   17.4600 H   0  0  0  0  0  0  0  0  0  0  0  0
    3.7590   12.8780   18.3560 H   0  0  0  0  0  0  0  0  0  0  0  0
    0.9830   14.0830   17.9600 H   0  0  0  0  0  0  0  0  0  0  0  0
    1.4790   12.3740   17.8150 H   0  0  0  0  0  0  0  0  0  0  0  0
  1  6  1  0  0  0  0
  2  3  1  0  0  0  0
  2  1  2  0  0  0  0
  3  4  2  0  0  0  0
  4 30  1  0  0  0  0
  4  5  1  0  0  0  0
  5  9  1  0  0  0  0
  6  5  2  0  0  0  0
  6 10  1  0  0  0  0
  7  2  1  0  0  0  0
  8  3  1  0  0  0  0
 11 12  2  0  0  0  0
 12 13  1  0  0  0  0
 13 14  1  0  0  0  0
 13  1  1  0  0  0  0
 15 12  1  0  0  0  0
 15 16  1  0  0  0  0
 16 25  1  0  0  0  0
 17 16  2  0  0  0  0
 17 26  1  0  0  0  0
 18 17  1  0  0  0  0
 19 24  1  0  0  0  0
 19 18  2  0  0  0  0
 20 19  1  0  0  0  0
 21 20  1  0  0  0  0
 21 23  1  0  0  0  0
 22 21  2  0  0  0  0
 23 24  1  0  0  0  0
 24 15  2  0  0  0  0
 27 18  1  0  0  0  0
 28 20  1  0  0  0  0
 29 23  1  0  0  0  0
 30 32  1  0  0  0  0
 31 30  1  0  0  0  0
 33 35  1  0  0  0  0
 33 30  1  0  0  0  0
 33 36  1  0  0  0  0
 34 33  1  0  0  0  0
 36 37  2  0  0  0  0
 38 36  1  0  0  0  0
 38 39  1  0  0  0  0
 39 44  1  0  0  0  0
 39 43  1  0  0  0  0
 40 45  1  0  0  0  0
 40 39  1  0  0  0  0
 41 48  1  0  0  0  0
 41 42  1  0  0  0  0
 41 40  1  0  0  0  0
 42 38  1  0  0  0  0
 46 40  1  0  0  0  0
 47 41  1  0  0  0  0
 49 42  1  0  0  0  0
 50 42  1  0  0  0  0
M  END
>  <MODEL>
31

>  <REMARK>
 VINA RESULT:    -7.541      2.859      4.306
 INTER + INTRA:         -10.435
 INTER:                  -9.263
 INTRA:                  -1.173
 UNBOUND:                -0.690
  Name = 
  5 active torsions:
  status: ('A' for Active; 'I' for Inactive)
    1  A    between atoms: C_2  and  C_19
    2  A    between atoms: N_3  and  C_4
    3  A    between atoms: C_7  and  C_8
    4  A    between atoms: C_8  and  C_9
    5  A    between atoms: C_9  and  C_10
                            x       y       z     vdW  Elec       q    Type
                         _______ _______ _______ _____ _____    ______ ____

>  <TORSDO>
F 5

$$$$
=
 OpenBabel07192307433D

 50 53  0  0  0  0  0  0  0  0999 V2000
    1.6000    8.6730   19.3740 C   0  0  0  0  0  0  0  0  0  0  0  0
    1.4910    7.8570   20.5060 C   0  0  0  0  0  0  0  0  0  0  0  0
    1.9180    6.5260   20.4720 C   0  0  0  0  0  0  0  0  0  0  0  0
    2.4610    5.9850   19.3040 C   0  0  0  0  0  0  0  0  0  0  0  0
    2.5740    6.8030   18.1740 C   0  0  0  0  0  0  0  0  0  0  0  0
    2.1460    8.1360   18.2090 C   0  0  0  0  0  0  0  0  0  0  0  0
    1.0750    8.2400   21.4350 H   0  0  0  0  0  0  0  0  0  0  0  0
    1.8280    5.9150   21.3690 H   0  0  0  0  0  0  0  0  0  0  0  0
    2.9970    6.4120   17.2510 H   0  0  0  0  0  0  0  0  0  0  0  0
    2.2590    8.7270   17.3060 H   0  0  0  0  0  0  0  0  0  0  0  0
   -0.6210   10.1080   17.9810 O   0  0  0  0  0  0  0  0  0  0  0  0
    0.1420   10.6220   18.7900 C   0  0  0  0  0  0  0  0  0  0  0  0
    1.1580   10.0060   19.4960 N   0  0  0  0  0  0  0  0  0  0  0  0
    1.5980   10.5470   20.2300 H   0  0  0  0  0  0  0  0  0  0  0  0
   -0.0430   12.0570   19.1050 C   0  0  0  0  0  0  0  0  0  0  0  0
   -1.2690   12.5000   19.6280 C   0  0  0  0  0  0  0  0  0  0  0  0
   -1.4700   13.8560   19.9650 C   0  0  0  0  0  0  0  0  0  0  0  0
   -0.4550   14.8010   19.7760 C   0  0  0  0  0  0  0  0  0  0  0  0
    0.7290   14.3460   19.2420 C   0  0  0  0  0  0  0  0  0  0  0  0
    1.8770   15.0580   18.9180 N   0  0  0  0  0  0  0  0  0  0  0  0
    2.8070   14.1830   18.3440 C   0  0  0  0  0  0  0  0  0  0  0  0
    3.9080   14.4700   17.9120 O   0  0  0  0  0  0  0  0  0  0  0  0
    2.2200   12.9100   18.3550 N   0  0  0  0  0  0  0  0  0  0  0  0
    0.9380   13.0070   18.9050 C   0  0  0  0  0  0  0  0  0  0  0  0
   -2.0780   11.7870   19.7830 H   0  0  0  0  0  0  0  0  0  0  0  0
   -2.4290   14.1690   20.3710 H   0  0  0  0  0  0  0  0  0  0  0  0
   -0.6070   15.8440   20.0270 H   0  0  0  0  0  0  0  0  0  0  0  0
    2.0300   16.0490   19.0140 H   0  0  0  0  0  0  0  0  0  0  0  0
    2.6420   12.1030   17.9220 H   0  0  0  0  0  0  0  0  0  0  0  0
    2.9460    4.5540   19.2680 C   0  0  0  0  0  0  0  0  0  0  0  0
    3.6340    4.3730   20.1030 H   0  0  0  0  0  0  0  0  0  0  0  0
    2.0850    3.8970   19.4490 H   0  0  0  0  0  0  0  0  0  0  0  0
    3.5790    4.1850   17.9260 C   0  0  0  0  0  0  0  0  0  0  0  0
    3.3890    3.1220   17.7310 H   0  0  0  0  0  0  0  0  0  0  0  0
    3.1200    4.7670   17.1200 H   0  0  0  0  0  0  0  0  0  0  0  0
    5.0890    4.3650   17.9050 C   0  0  0  0  0  0  0  0  0  0  0  0
    5.7610    4.4240   18.9350 O   0  0  0  0  0  0  0  0  0  0  0  0
    5.6750    4.4030   16.6570 N   0  0  0  0  0  0  0  0  0  0  0  0
    7.1080    4.5770   16.5030 C   0  0  0  0  0  0  0  0  0  0  0  0
    7.2950    4.8720   15.0210 C   0  0  0  0  0  0  0  0  0  0  0  0
    6.1490    4.1040   14.3750 C   0  0  0  0  0  0  0  0  0  0  0  0
    5.0120    4.2920   15.3690 C   0  0  0  0  0  0  0  0  0  0  0  0
    7.4800    5.3810   17.1460 H   0  0  0  0  0  0  0  0  0  0  0  0
    7.5930    3.6370   16.7880 H   0  0  0  0  0  0  0  0  0  0  0  0
    8.2780    4.5670   14.6520 H   0  0  0  0  0  0  0  0  0  0  0  0
    7.1740    5.9450   14.8330 H   0  0  0  0  0  0  0  0  0  0  0  0
    5.9000    4.4680   13.3740 H   0  0  0  0  0  0  0  0  0  0  0  0
    6.4110    3.0420   14.3000 H   0  0  0  0  0  0  0  0  0  0  0  0
    4.4730    5.2290   15.1840 H   0  0  0  0  0  0  0  0  0  0  0  0
    4.3020    3.4600   15.3600 H   0  0  0  0  0  0  0  0  0  0  0  0
  1 13  1  0  0  0  0
  1  2  1  0  0  0  0
  2  7  1  0  0  0  0
  3  2  2  0  0  0  0
  3  8  1  0  0  0  0
  4  3  1  0  0  0  0
  5  6  1  0  0  0  0
  5  4  2  0  0  0  0
  6  1  2  0  0  0  0
  9  5  1  0  0  0  0
 10  6  1  0  0  0  0
 11 12  2  0  0  0  0
 12 15  1  0  0  0  0
 12 13  1  0  0  0  0
 13 14  1  0  0  0  0
 15 16  1  0  0  0  0
 16 25  1  0  0  0  0
 16 17  2  0  0  0  0
 17 26  1  0  0  0  0
 18 17  1  0  0  0  0
 18 27  1  0  0  0  0
 19 18  2  0  0  0  0
 20 28  1  0  0  0  0
 20 19  1  0  0  0  0
 21 23  1  0  0  0  0
 21 20  1  0  0  0  0
 22 21  2  0  0  0  0
 23 24  1  0  0  0  0
 24 15  2  0  0  0  0
 24 19  1  0  0  0  0
 29 23  1  0  0  0  0
 30  4  1  0  0  0  0
 30 32  1  0  0  0  0
 30 31  1  0  0  0  0
 33 30  1  0  0  0  0
 34 33  1  0  0  0  0
 35 33  1  0  0  0  0
 36 33  1  0  0  0  0
 36 37  2  0  0  0  0
 38 36  1  0  0  0  0
 39 38  1  0  0  0  0
 39 44  1  0  0  0  0
 39 43  1  0  0  0  0
 40 39  1  0  0  0  0
 41 40  1  0  0  0  0
 41 42  1  0  0  0  0
 42 38  1  0  0  0  0
 45 40  1  0  0  0  0
 46 40  1  0  0  0  0
 47 41  1  0  0  0  0
 48 41  1  0  0  0  0
 49 42  1  0  0  0  0
 50 42  1  0  0  0  0
M  END
>  <MODEL>
32

>  <REMARK>
 VINA RESULT:    -7.494      3.055      9.236
 INTER + INTRA:         -10.375
 INTER:                  -9.783
 INTRA:                  -0.592
 UNBOUND:                -0.690
  Name = 
  5 active torsions:
  status: ('A' for Active; 'I' for Inactive)
    1  A    between atoms: C_2  and  C_19
    2  A    between atoms: N_3  and  C_4
    3  A    between atoms: C_7  and  C_8
    4  A    between atoms: C_8  and  C_9
    5  A    between atoms: C_9  and  C_10
                            x       y       z     vdW  Elec       q    Type
                         _______ _______ _______ _____ _____    ______ ____

>  <TORSDO>
F 5

$$$$
=
 OpenBabel07192307433D

 50 53  0  0  0  0  0  0  0  0999 V2000
    1.1690    8.6550   20.8340 C   0  0  0  0  0  0  0  0  0  0  0  0
    0.9730    8.8770   22.2020 C   0  0  0  0  0  0  0  0  0  0  0  0
    0.1620    9.9250   22.6470 C   0  0  0  0  0  0  0  0  0  0  0  0
   -0.4670   10.7720   21.7320 C   0  0  0  0  0  0  0  0  0  0  0  0
   -0.2750   10.5470   20.3640 C   0  0  0  0  0  0  0  0  0  0  0  0
    0.5370    9.4970   19.9190 C   0  0  0  0  0  0  0  0  0  0  0  0
    1.4440    8.2390   22.9460 H   0  0  0  0  0  0  0  0  0  0  0  0
    0.0210   10.0710   23.7170 H   0  0  0  0  0  0  0  0  0  0  0  0
   -0.7560   11.1870   19.6270 H   0  0  0  0  0  0  0  0  0  0  0  0
    0.6510    9.3640   18.8480 H   0  0  0  0  0  0  0  0  0  0  0  0
    2.1240    7.7720   18.1420 O   0  0  0  0  0  0  0  0  0  0  0  0
    2.3670    7.1910   19.1930 C   0  0  0  0  0  0  0  0  0  0  0  0
    1.9910    7.5700   20.4690 N   0  0  0  0  0  0  0  0  0  0  0  0
    2.3990    7.0520   21.2380 H   0  0  0  0  0  0  0  0  0  0  0  0
    3.1920    5.9640   19.1340 C   0  0  0  0  0  0  0  0  0  0  0  0
    4.3310    5.9310   18.3110 C   0  0  0  0  0  0  0  0  0  0  0  0
    5.1540    4.7860   18.2520 C   0  0  0  0  0  0  0  0  0  0  0  0
    4.8530    3.6450   19.0040 C   0  0  0  0  0  0  0  0  0  0  0  0
    3.7210    3.6940   19.7850 C   0  0  0  0  0  0  0  0  0  0  0  0
    3.1700    2.7080   20.5940 N   0  0  0  0  0  0  0  0  0  0  0  0
    1.9800    3.1920   21.1510 C   0  0  0  0  0  0  0  0  0  0  0  0
    1.2180    2.5860   21.8830 O   0  0  0  0  0  0  0  0  0  0  0  0
    1.8290    4.5080   20.6960 N   0  0  0  0  0  0  0  0  0  0  0  0
    2.8990    4.8210   19.8510 C   0  0  0  0  0  0  0  0  0  0  0  0
    4.5880    6.8050   17.7130 H   0  0  0  0  0  0  0  0  0  0  0  0
    6.0310    4.7930   17.6080 H   0  0  0  0  0  0  0  0  0  0  0  0
    5.4790    2.7620   18.9560 H   0  0  0  0  0  0  0  0  0  0  0  0
    3.5120    1.7720   20.7370 H   0  0  0  0  0  0  0  0  0  0  0  0
    1.0090    5.0670   20.8790 H   0  0  0  0  0  0  0  0  0  0  0  0
   -1.3640   11.8920   22.2070 C   0  0  0  0  0  0  0  0  0  0  0  0
   -2.2580   11.9490   21.5740 H   0  0  0  0  0  0  0  0  0  0  0  0
   -1.7300   11.6360   23.2100 H   0  0  0  0  0  0  0  0  0  0  0  0
   -0.6360   13.2350   22.2730 C   0  0  0  0  0  0  0  0  0  0  0  0
   -1.1590   13.8810   22.9890 H   0  0  0  0  0  0  0  0  0  0  0  0
    0.3900   13.0910   22.6300 H   0  0  0  0  0  0  0  0  0  0  0  0
   -0.6270   13.9790   20.9470 C   0  0  0  0  0  0  0  0  0  0  0  0
   -1.6310   14.5270   20.4910 O   0  0  0  0  0  0  0  0  0  0  0  0
    0.5910   14.0540   20.3040 N   0  0  0  0  0  0  0  0  0  0  0  0
    0.7300   14.7320   19.0280 C   0  0  0  0  0  0  0  0  0  0  0  0
    2.1110   14.3260   18.5320 C   0  0  0  0  0  0  0  0  0  0  0  0
    2.8910   14.1290   19.8260 C   0  0  0  0  0  0  0  0  0  0  0  0
    1.8590   13.5030   20.7540 C   0  0  0  0  0  0  0  0  0  0  0  0
   -0.0710   14.4440   18.3390 H   0  0  0  0  0  0  0  0  0  0  0  0
    0.6720   15.8100   19.2120 H   0  0  0  0  0  0  0  0  0  0  0  0
    2.5570   15.0730   17.8710 H   0  0  0  0  0  0  0  0  0  0  0  0
    2.0500   13.3760   17.9890 H   0  0  0  0  0  0  0  0  0  0  0  0
    3.7800   13.5040   19.7000 H   0  0  0  0  0  0  0  0  0  0  0  0
    3.2080   15.1030   20.2190 H   0  0  0  0  0  0  0  0  0  0  0  0
    1.8180   12.4150   20.6260 H   0  0  0  0  0  0  0  0  0  0  0  0
    2.0410   13.7370   21.8060 H   0  0  0  0  0  0  0  0  0  0  0  0
  1  2  1  0  0  0  0
  2  3  2  0  0  0  0
  2  7  1  0  0  0  0
  3  8  1  0  0  0  0
  4 30  1  0  0  0  0
  4  3  1  0  0  0  0
  5  4  2  0  0  0  0
  6  5  1  0  0  0  0
  6  1  2  0  0  0  0
  9  5  1  0  0  0  0
 10  6  1  0  0  0  0
 11 12  2  0  0  0  0
 12 13  1  0  0  0  0
 13  1  1  0  0  0  0
 13 14  1  0  0  0  0
 15 12  1  0  0  0  0
 15 24  1  0  0  0  0
 16 15  2  0  0  0  0
 17 16  1  0  0  0  0
 17 18  2  0  0  0  0
 18 19  1  0  0  0  0
 19 24  2  0  0  0  0
 19 20  1  0  0  0  0
 20 28  1  0  0  0  0
 20 21  1  0  0  0  0
 21 22  2  0  0  0  0
 23 29  1  0  0  0  0
 23 21  1  0  0  0  0
 24 23  1  0  0  0  0
 25 16  1  0  0  0  0
 26 17  1  0  0  0  0
 27 18  1  0  0  0  0
 30 33  1  0  0  0  0
 30 32  1  0  0  0  0
 31 30  1  0  0  0  0
 33 35  1  0  0  0  0
 33 34  1  0  0  0  0
 36 33  1  0  0  0  0
 37 36  2  0  0  0  0
 38 42  1  0  0  0  0
 38 36  1  0  0  0  0
 39 44  1  0  0  0  0
 39 38  1  0  0  0  0
 40 39  1  0  0  0  0
 40 41  1  0  0  0  0
 41 48  1  0  0  0  0
 41 42  1  0  0  0  0
 42 50  1  0  0  0  0
 43 39  1  0  0  0  0
 45 40  1  0  0  0  0
 46 40  1  0  0  0  0
 47 41  1  0  0  0  0
 49 42  1  0  0  0  0
M  END
>  <MODEL>
33

>  <REMARK>
 VINA RESULT:    -7.402      2.470      3.498
 INTER + INTRA:         -10.256
 INTER:                  -9.971
 INTRA:                  -0.284
 UNBOUND:                -0.690
  Name = 
  5 active torsions:
  status: ('A' for Active; 'I' for Inactive)
    1  A    between atoms: C_2  and  C_19
    2  A    between atoms: N_3  and  C_4
    3  A    between atoms: C_7  and  C_8
    4  A    between atoms: C_8  and  C_9
    5  A    between atoms: C_9  and  C_10
                            x       y       z     vdW  Elec       q    Type
                         _______ _______ _______ _____ _____    ______ ____

>  <TORSDO>
F 5

$$$$
