=
 OpenBabel07192307433D

 63 66  0  0  1  0  0  0  0  0999 V2000
    1.9230    4.3520   18.8280 C   0  0  0  0  0  0  0  0  0  0  0  0
    1.5940    4.5320   20.1780 C   0  0  0  0  0  0  0  0  0  0  0  0
    1.6020    5.7960   20.7810 C   0  0  0  0  0  0  0  0  0  0  0  0
    1.9480    6.9410   20.0520 C   0  0  0  0  0  0  0  0  0  0  0  0
    2.3130    6.7810   18.7040 C   0  0  0  0  0  0  0  0  0  0  0  0
    2.2880    5.5020   18.1110 C   0  0  0  0  0  0  0  0  0  0  0  0
    1.3580    3.6730   20.8040 H   0  0  0  0  0  0  0  0  0  0  0  0
    1.3610    5.8720   21.8400 H   0  0  0  0  0  0  0  0  0  0  0  0
    2.5170    5.4210   17.0530 H   0  0  0  0  0  0  0  0  0  0  0  0
    2.7340    7.9450   17.8720 C   0  0  0  0  0  0  0  0  0  0  0  0
    1.7360    8.7630   17.4180 N   0  0  0  0  0  0  0  0  0  0  0  0
    3.8990    8.1650   17.5730 O   0  0  0  0  0  0  0  0  0  0  0  0
    0.7600    8.5050   17.4650 H   0  0  0  0  0  0  0  0  0  0  0  0
    2.0080    9.5120   16.7960 H   0  0  0  0  0  0  0  0  0  0  0  0
    1.9700    8.2720   20.7590 C   0  0  0  0  0  0  0  0  0  0  0  0
    2.3840    8.1720   21.7670 H   0  0  0  0  0  0  0  0  0  0  0  0
    2.6230    8.9840   20.2370 H   0  0  0  0  0  0  0  0  0  0  0  0
    0.6420    8.8340   20.8560 N   0  0  0  0  0  0  0  0  0  0  0  0
    0.3080    9.9870   20.2060 C   0  0  0  0  0  0  0  0  0  0  0  0
    1.0730   10.6340   19.5060 O   0  0  0  0  0  0  0  0  0  0  0  0
   -1.0090   10.3070   20.4190 N   0  0  0  0  0  0  0  0  0  0  0  0
    0.1210    8.6090   21.6940 H   0  0  0  0  0  0  0  0  0  0  0  0
   -1.5930    9.4990   20.5570 H   0  0  0  0  0  0  0  0  0  0  0  0
   -1.5910   11.4020   19.6750 C   0  0  2  0  0  0  0  0  0  0  0  0
   -2.7750   12.0550   20.4180 C   0  0  0  0  0  0  0  0  0  0  0  0
   -3.6940   12.6350   19.3370 C   0  0  0  0  0  0  0  0  0  0  0  0
   -3.4560   11.6830   18.2070 C   0  0  0  0  0  0  0  0  0  0  0  0
   -4.2190   11.5170   17.0650 C   0  0  0  0  0  0  0  0  0  0  0  0
   -3.7800   10.6110   16.0980 C   0  0  0  0  0  0  0  0  0  0  0  0
   -2.5830    9.9010   16.2770 C   0  0  0  0  0  0  0  0  0  0  0  0
   -1.8100   10.0850   17.4260 C   0  0  0  0  0  0  0  0  0  0  0  0
   -2.2600   10.9730   18.3940 C   0  0  0  0  0  0  0  0  0  0  0  0
   -0.8160   12.1450   19.4450 H   0  0  0  0  0  0  0  0  0  0  0  0
   -2.4500   12.8180   21.1350 H   0  0  0  0  0  0  0  0  0  0  0  0
   -3.3280   11.2970   20.9900 H   0  0  0  0  0  0  0  0  0  0  0  0
   -3.3770   13.6440   19.0520 H   0  0  0  0  0  0  0  0  0  0  0  0
   -4.7370   12.6490   19.6590 H   0  0  0  0  0  0  0  0  0  0  0  0
   -5.1370   12.0800   16.9170 H   0  0  0  0  0  0  0  0  0  0  0  0
   -4.3640   10.4650   15.1920 H   0  0  0  0  0  0  0  0  0  0  0  0
   -2.2500    9.2100   15.5070 H   0  0  0  0  0  0  0  0  0  0  0  0
   -0.8720    9.5510   17.5410 H   0  0  0  0  0  0  0  0  0  0  0  0
    1.9090    3.0750   18.2590 N   0  0  0  0  0  0  0  0  0  0  0  0
    0.8410    2.1480   18.6250 C   0  0  0  0  0  0  0  0  0  0  0  0
    0.1180    2.6290   19.2920 H   0  0  0  0  0  0  0  0  0  0  0  0
    1.2340    1.2450   19.1090 H   0  0  0  0  0  0  0  0  0  0  0  0
    0.2860    1.8350   17.7310 H   0  0  0  0  0  0  0  0  0  0  0  0
    3.2120    2.4600   17.9430 C   0  0  0  0  0  0  0  0  0  0  0  0
    3.4640    1.7390   18.7310 H   0  0  0  0  0  0  0  0  0  0  0  0
    3.1810    1.8590   17.0280 H   0  0  0  0  0  0  0  0  0  0  0  0
    6.3610    5.4270   17.6540 C   0  0  0  0  0  0  0  0  0  0  0  0
    5.6880    4.9920   16.5070 C   0  0  0  0  0  0  0  0  0  0  0  0
    4.6750    4.0340   16.6000 C   0  0  0  0  0  0  0  0  0  0  0  0
    4.3260    3.4810   17.8400 C   0  0  0  0  0  0  0  0  0  0  0  0
    5.0160    3.9070   18.9840 C   0  0  0  0  0  0  0  0  0  0  0  0
    6.0260    4.8670   18.8910 C   0  0  0  0  0  0  0  0  0  0  0  0
    5.9400    5.4020   15.5320 H   0  0  0  0  0  0  0  0  0  0  0  0
    4.1540    3.7230   15.6970 H   0  0  0  0  0  0  0  0  0  0  0  0
    4.7680    3.4930   19.9610 H   0  0  0  0  0  0  0  0  0  0  0  0
    6.5440    5.1810   19.7920 H   0  0  0  0  0  0  0  0  0  0  0  0
    7.4610    6.4390   17.5470 C   0  0  0  0  0  0  0  0  0  0  0  0
    7.0430    7.4500   17.5820 H   0  0  0  0  0  0  0  0  0  0  0  0
    8.0160    6.3190   16.6110 H   0  0  0  0  0  0  0  0  0  0  0  0
    8.1770    6.3220   18.3680 H   0  0  0  0  0  0  0  0  0  0  0  0
  1  2  1  0  0  0  0
  2  3  2  0  0  0  0
  2  7  1  0  0  0  0
  3  8  1  0  0  0  0
  4 15  1  0  0  0  0
  4  3  1  0  0  0  0
  5  4  2  0  0  0  0
  6  5  1  0  0  0  0
  6  1  2  0  0  0  0
  9  6  1  0  0  0  0
 10  5  1  0  0  0  0
 11 13  1  0  0  0  0
 11 10  1  0  0  0  0
 12 10  2  0  0  0  0
 14 11  1  0  0  0  0
 15 18  1  0  0  0  0
 15 16  1  0  0  0  0
 17 15  1  0  0  0  0
 18 22  1  0  0  0  0
 19 21  1  0  0  0  0
 19 18  1  0  0  0  0
 20 19  2  0  0  0  0
 21 23  1  0  0  0  0
 24 33  1  6  0  0  0
 24 25  1  0  0  0  0
 24 21  1  0  0  0  0
 25 35  1  0  0  0  0
 25 34  1  0  0  0  0
 26 37  1  0  0  0  0
 26 25  1  0  0  0  0
 27 32  1  0  0  0  0
 27 26  1  0  0  0  0
 28 27  2  0  0  0  0
 29 30  2  0  0  0  0
 29 28  1  0  0  0  0
 30 31  1  0  0  0  0
 31 41  1  0  0  0  0
 31 32  2  0  0  0  0
 32 24  1  0  0  0  0
 36 26  1  0  0  0  0
 38 28  1  0  0  0  0
 39 29  1  0  0  0  0
 40 30  1  0  0  0  0
 42 43  1  0  0  0  0
 42  1  1  0  0  0  0
 43 45  1  0  0  0  0
 43 44  1  0  0  0  0
 46 43  1  0  0  0  0
 47 42  1  0  0  0  0
 47 48  1  0  0  0  0
 49 47  1  0  0  0  0
 50 55  1  0  0  0  0
 51 52  1  0  0  0  0
 51 50  2  0  0  0  0
 52 53  2  0  0  0  0
 53 47  1  0  0  0  0
 53 54  1  0  0  0  0
 54 58  1  0  0  0  0
 55 54  2  0  0  0  0
 55 59  1  0  0  0  0
 56 51  1  0  0  0  0
 57 52  1  0  0  0  0
 60 61  1  0  0  0  0
 60 50  1  0  0  0  0
 60 63  1  0  0  0  0
 62 60  1  0  0  0  0
M  END
>  <MODEL>
1

>  <REMARK>
 VINA RESULT:    -8.172      0.000      0.000
 INTER + INTRA:         -12.850
 INTER:                 -12.157
 INTRA:                  -0.693
 UNBOUND:                -0.856
  Name = 
  9 active torsions:
  status: ('A' for Active; 'I' for Inactive)
    1  A    between atoms: C_1  and  C_2
    2  A    between atoms: C_5  and  C_6
    3  A    between atoms: C_6  and  N_7
    4  A    between atoms: N_7  and  C_8
    5  A    between atoms: N_7  and  C_9
    6  A    between atoms: C_12  and  C_13
    7  A    between atoms: C_13  and  N_14
    8  A    between atoms: N_17  and  C_18
    9  A    between atoms: C_27  and  C_28
                            x       y       z     vdW  Elec       q    Type
                         _______ _______ _______ _____ _____    ______ ____

>  <TORSDO>
F 9

$$$$
=
 OpenBabel07192307433D

 63 66  0  0  1  0  0  0  0  0999 V2000
    4.0220    5.2980   17.9550 C   0  0  0  0  0  0  0  0  0  0  0  0
    3.6580    6.6510   17.9900 C   0  0  0  0  0  0  0  0  0  0  0  0
    2.7550    7.1510   18.9360 C   0  0  0  0  0  0  0  0  0  0  0  0
    2.1680    6.3090   19.8890 C   0  0  0  0  0  0  0  0  0  0  0  0
    2.4920    4.9420   19.8520 C   0  0  0  0  0  0  0  0  0  0  0  0
    3.4130    4.4590   18.9010 C   0  0  0  0  0  0  0  0  0  0  0  0
    4.0500    7.3430   17.2480 H   0  0  0  0  0  0  0  0  0  0  0  0
    2.4910    8.2060   18.9000 H   0  0  0  0  0  0  0  0  0  0  0  0
    3.6880    3.4080   18.9380 H   0  0  0  0  0  0  0  0  0  0  0  0
    1.8790    3.9740   20.8070 C   0  0  0  0  0  0  0  0  0  0  0  0
    0.7160    3.3760   20.4080 N   0  0  0  0  0  0  0  0  0  0  0  0
    2.3540    3.7310   21.9070 O   0  0  0  0  0  0  0  0  0  0  0  0
    0.1860    3.6990   19.6100 H   0  0  0  0  0  0  0  0  0  0  0  0
    0.2590    2.7740   21.0780 H   0  0  0  0  0  0  0  0  0  0  0  0
    1.1780    6.8950   20.8640 C   0  0  0  0  0  0  0  0  0  0  0  0
    0.1660    6.8830   20.4470 H   0  0  0  0  0  0  0  0  0  0  0  0
    1.1310    6.2970   21.7830 H   0  0  0  0  0  0  0  0  0  0  0  0
    1.5240    8.2560   21.2040 N   0  0  0  0  0  0  0  0  0  0  0  0
    0.8680    9.3170   20.6520 C   0  0  0  0  0  0  0  0  0  0  0  0
   -0.0430    9.2220   19.8410 O   0  0  0  0  0  0  0  0  0  0  0  0
    1.3450   10.5030   21.1470 N   0  0  0  0  0  0  0  0  0  0  0  0
    2.4750    8.4120   21.5130 H   0  0  0  0  0  0  0  0  0  0  0  0
    1.6840   10.4270   22.0920 H   0  0  0  0  0  0  0  0  0  0  0  0
    0.6590   11.7300   20.8080 C   0  0  2  0  0  0  0  0  0  0  0  0
    1.6040   12.9510   20.8000 C   0  0  0  0  0  0  0  0  0  0  0  0
    0.7360   14.1670   21.1380 C   0  0  0  0  0  0  0  0  0  0  0  0
   -0.3070   13.5510   22.0170 C   0  0  0  0  0  0  0  0  0  0  0  0
   -1.1910   14.1980   22.8620 C   0  0  0  0  0  0  0  0  0  0  0  0
   -2.1330   13.4300   23.5500 C   0  0  0  0  0  0  0  0  0  0  0  0
   -2.1880   12.0400   23.3720 C   0  0  0  0  0  0  0  0  0  0  0  0
   -1.3020   11.3960   22.5060 C   0  0  0  0  0  0  0  0  0  0  0  0
   -0.3540   12.1600   21.8380 C   0  0  0  0  0  0  0  0  0  0  0  0
    0.1600   11.6160   19.8360 H   0  0  0  0  0  0  0  0  0  0  0  0
    2.1260   13.0700   19.8440 H   0  0  0  0  0  0  0  0  0  0  0  0
    2.3770   12.8360   21.5720 H   0  0  0  0  0  0  0  0  0  0  0  0
    0.2710   14.5810   20.2360 H   0  0  0  0  0  0  0  0  0  0  0  0
    1.3100   14.9430   21.6500 H   0  0  0  0  0  0  0  0  0  0  0  0
   -1.1610   15.2760   22.9860 H   0  0  0  0  0  0  0  0  0  0  0  0
   -2.8390   13.9180   24.2200 H   0  0  0  0  0  0  0  0  0  0  0  0
   -2.9380   11.4610   23.9060 H   0  0  0  0  0  0  0  0  0  0  0  0
   -1.3720   10.3240   22.3540 H   0  0  0  0  0  0  0  0  0  0  0  0
    4.9230    4.8310   16.9940 N   0  0  0  0  0  0  0  0  0  0  0  0
    4.4380    3.9480   15.9360 C   0  0  0  0  0  0  0  0  0  0  0  0
    3.6500    4.4360   15.3520 H   0  0  0  0  0  0  0  0  0  0  0  0
    4.0560    3.0020   16.3390 H   0  0  0  0  0  0  0  0  0  0  0  0
    5.2500    3.7120   15.2350 H   0  0  0  0  0  0  0  0  0  0  0  0
    6.3170    4.6110   17.4230 C   0  0  0  0  0  0  0  0  0  0  0  0
    6.3180    3.9640   18.3100 H   0  0  0  0  0  0  0  0  0  0  0  0
    6.9020    4.0540   16.6840 H   0  0  0  0  0  0  0  0  0  0  0  0
    8.3120    8.3300   18.4200 C   0  0  0  0  0  0  0  0  0  0  0  0
    7.5460    8.2260   17.2540 C   0  0  0  0  0  0  0  0  0  0  0  0
    6.9060    7.0260   16.9310 C   0  0  0  0  0  0  0  0  0  0  0  0
    7.0320    5.9040   17.7610 C   0  0  0  0  0  0  0  0  0  0  0  0
    7.8140    6.0080   18.9190 C   0  0  0  0  0  0  0  0  0  0  0  0
    8.4510    7.2080   19.2430 C   0  0  0  0  0  0  0  0  0  0  0  0
    7.4350    9.0800   16.5900 H   0  0  0  0  0  0  0  0  0  0  0  0
    6.3030    6.9740   16.0270 H   0  0  0  0  0  0  0  0  0  0  0  0
    7.9320    5.1520   19.5820 H   0  0  0  0  0  0  0  0  0  0  0  0
    9.0520    7.2640   20.1470 H   0  0  0  0  0  0  0  0  0  0  0  0
    9.0150    9.6120   18.7510 C   0  0  0  0  0  0  0  0  0  0  0  0
    9.2460   10.1600   17.8320 H   0  0  0  0  0  0  0  0  0  0  0  0
    9.9470    9.4210   19.2920 H   0  0  0  0  0  0  0  0  0  0  0  0
    8.3900   10.2430   19.3930 H   0  0  0  0  0  0  0  0  0  0  0  0
  1  2  2  0  0  0  0
  1  6  1  0  0  0  0
  2  3  1  0  0  0  0
  3  4  2  0  0  0  0
  4 15  1  0  0  0  0
  5  4  1  0  0  0  0
  5 10  1  0  0  0  0
  6  9  1  0  0  0  0
  6  5  2  0  0  0  0
  7  2  1  0  0  0  0
  8  3  1  0  0  0  0
 10 12  2  0  0  0  0
 11 10  1  0  0  0  0
 11 14  1  0  0  0  0
 13 11  1  0  0  0  0
 15 18  1  0  0  0  0
 15 17  1  0  0  0  0
 16 15  1  0  0  0  0
 18 22  1  0  0  0  0
 19 21  1  0  0  0  0
 19 18  1  0  0  0  0
 20 19  2  0  0  0  0
 21 23  1  0  0  0  0
 24 33  1  6  0  0  0
 24 21  1  0  0  0  0
 24 32  1  0  0  0  0
 25 24  1  0  0  0  0
 25 26  1  0  0  0  0
 25 35  1  0  0  0  0
 26 37  1  0  0  0  0
 26 27  1  0  0  0  0
 27 28  1  0  0  0  0
 28 38  1  0  0  0  0
 28 29  2  0  0  0  0
 29 39  1  0  0  0  0
 30 29  1  0  0  0  0
 30 40  1  0  0  0  0
 31 30  2  0  0  0  0
 32 27  2  0  0  0  0
 32 31  1  0  0  0  0
 34 25  1  0  0  0  0
 36 26  1  0  0  0  0
 41 31  1  0  0  0  0
 42 47  1  0  0  0  0
 42  1  1  0  0  0  0
 43 45  1  0  0  0  0
 43 42  1  0  0  0  0
 44 43  1  0  0  0  0
 46 43  1  0  0  0  0
 47 53  1  0  0  0  0
 47 48  1  0  0  0  0
 49 47  1  0  0  0  0
 50 60  1  0  0  0  0
 50 55  1  0  0  0  0
 51 50  2  0  0  0  0
 52 51  1  0  0  0  0
 52 53  2  0  0  0  0
 53 54  1  0  0  0  0
 54 55  2  0  0  0  0
 54 58  1  0  0  0  0
 55 59  1  0  0  0  0
 56 51  1  0  0  0  0
 57 52  1  0  0  0  0
 60 62  1  0  0  0  0
 60 63  1  0  0  0  0
 61 60  1  0  0  0  0
M  END
>  <MODEL>
2

>  <REMARK>
 VINA RESULT:    -7.819      2.967      4.239
 INTER + INTRA:         -12.333
 INTER:                 -11.326
 INTRA:                  -1.006
 UNBOUND:                -0.856
  Name = 
  9 active torsions:
  status: ('A' for Active; 'I' for Inactive)
    1  A    between atoms: C_1  and  C_2
    2  A    between atoms: C_5  and  C_6
    3  A    between atoms: C_6  and  N_7
    4  A    between atoms: N_7  and  C_8
    5  A    between atoms: N_7  and  C_9
    6  A    between atoms: C_12  and  C_13
    7  A    between atoms: C_13  and  N_14
    8  A    between atoms: N_17  and  C_18
    9  A    between atoms: C_27  and  C_28
                            x       y       z     vdW  Elec       q    Type
                         _______ _______ _______ _____ _____    ______ ____

>  <TORSDO>
F 9

$$$$
=
 OpenBabel07192307433D

 63 66  0  0  1  0  0  0  0  0999 V2000
    2.5140   13.3020   19.5760 C   0  0  0  0  0  0  0  0  0  0  0  0
    2.7440   12.7860   18.2940 C   0  0  0  0  0  0  0  0  0  0  0  0
    2.1470   11.5990   17.8550 C   0  0  0  0  0  0  0  0  0  0  0  0
    1.2920   10.8680   18.6910 C   0  0  0  0  0  0  0  0  0  0  0  0
    1.0730   11.3490   19.9930 C   0  0  0  0  0  0  0  0  0  0  0  0
    1.6730   12.5530   20.4140 C   0  0  0  0  0  0  0  0  0  0  0  0
    3.4320   13.2890   17.6160 H   0  0  0  0  0  0  0  0  0  0  0  0
    2.3810   11.2320   16.8570 H   0  0  0  0  0  0  0  0  0  0  0  0
    1.4350   12.9280   21.4050 H   0  0  0  0  0  0  0  0  0  0  0  0
    0.2090   10.6080   20.9570 C   0  0  0  0  0  0  0  0  0  0  0  0
    0.8390    9.7180   21.7830 N   0  0  0  0  0  0  0  0  0  0  0  0
   -1.0050   10.7480   21.0090 O   0  0  0  0  0  0  0  0  0  0  0  0
    1.7940    9.4230   21.6340 H   0  0  0  0  0  0  0  0  0  0  0  0
    0.2510    9.1630   22.3890 H   0  0  0  0  0  0  0  0  0  0  0  0
    0.7010    9.5800   18.1780 C   0  0  0  0  0  0  0  0  0  0  0  0
    0.0840    9.1010   18.9440 H   0  0  0  0  0  0  0  0  0  0  0  0
    0.0330    9.7660   17.3270 H   0  0  0  0  0  0  0  0  0  0  0  0
    1.7360    8.6560   17.7720 N   0  0  0  0  0  0  0  0  0  0  0  0
    2.3060    7.7900   18.6590 C   0  0  0  0  0  0  0  0  0  0  0  0
    2.0080    7.7160   19.8430 O   0  0  0  0  0  0  0  0  0  0  0  0
    3.2360    6.9940   18.0410 N   0  0  0  0  0  0  0  0  0  0  0  0
    2.2940    8.9330   16.9730 H   0  0  0  0  0  0  0  0  0  0  0  0
    3.0200    6.8150   17.0740 H   0  0  0  0  0  0  0  0  0  0  0  0
    3.8230    5.9000   18.7820 C   0  0  2  0  0  0  0  0  0  0  0  0
    5.2290    5.5250   18.2660 C   0  0  0  0  0  0  0  0  0  0  0  0
    5.4200    4.0380   18.5820 C   0  0  0  0  0  0  0  0  0  0  0  0
    4.0130    3.5350   18.4940 C   0  0  0  0  0  0  0  0  0  0  0  0
    3.5880    2.2220   18.3940 C   0  0  0  0  0  0  0  0  0  0  0  0
    2.2160    1.9660   18.3900 C   0  0  0  0  0  0  0  0  0  0  0  0
    1.2940    3.0170   18.5030 C   0  0  0  0  0  0  0  0  0  0  0  0
    1.7310    4.3400   18.6200 C   0  0  0  0  0  0  0  0  0  0  0  0
    3.0960    4.5910   18.6040 C   0  0  0  0  0  0  0  0  0  0  0  0
    3.8540    6.1530   19.8500 H   0  0  0  0  0  0  0  0  0  0  0  0
    6.0160    6.1450   18.7090 H   0  0  0  0  0  0  0  0  0  0  0  0
    5.2830    5.6720   17.1780 H   0  0  0  0  0  0  0  0  0  0  0  0
    5.8070    3.8990   19.5960 H   0  0  0  0  0  0  0  0  0  0  0  0
    6.0820    3.5540   17.8600 H   0  0  0  0  0  0  0  0  0  0  0  0
    4.3020    1.4060   18.3240 H   0  0  0  0  0  0  0  0  0  0  0  0
    1.8600    0.9410   18.3120 H   0  0  0  0  0  0  0  0  0  0  0  0
    0.2290    2.7970   18.5130 H   0  0  0  0  0  0  0  0  0  0  0  0
    1.0090    5.1420   18.7350 H   0  0  0  0  0  0  0  0  0  0  0  0
    3.1310   14.4890   19.9840 N   0  0  0  0  0  0  0  0  0  0  0  0
    2.5270   15.2670   21.0630 C   0  0  0  0  0  0  0  0  0  0  0  0
    3.2140   15.3550   21.9120 H   0  0  0  0  0  0  0  0  0  0  0  0
    1.5840   14.8230   21.4060 H   0  0  0  0  0  0  0  0  0  0  0  0
    2.3130   16.2890   20.7220 H   0  0  0  0  0  0  0  0  0  0  0  0
    3.8480   15.2670   18.9570 C   0  0  0  0  0  0  0  0  0  0  0  0
    3.4410   15.0140   17.9690 H   0  0  0  0  0  0  0  0  0  0  0  0
    3.6760   16.3450   19.0490 H   0  0  0  0  0  0  0  0  0  0  0  0
    8.1220   14.5360   18.9330 C   0  0  0  0  0  0  0  0  0  0  0  0
    7.3600   14.3260   17.7790 C   0  0  0  0  0  0  0  0  0  0  0  0
    5.9820   14.5580   17.7880 C   0  0  0  0  0  0  0  0  0  0  0  0
    5.3380   14.9920   18.9550 C   0  0  0  0  0  0  0  0  0  0  0  0
    6.1040   15.1840   20.1140 C   0  0  0  0  0  0  0  0  0  0  0  0
    7.4810   14.9550   20.1030 C   0  0  0  0  0  0  0  0  0  0  0  0
    7.8330   13.9870   16.8610 H   0  0  0  0  0  0  0  0  0  0  0  0
    5.4120   14.4030   16.8740 H   0  0  0  0  0  0  0  0  0  0  0  0
    5.6300   15.5180   21.0360 H   0  0  0  0  0  0  0  0  0  0  0  0
    8.0530   15.1120   21.0140 H   0  0  0  0  0  0  0  0  0  0  0  0
    9.5970   14.2650   18.9250 C   0  0  0  0  0  0  0  0  0  0  0  0
   10.1450   15.1840   18.6940 H   0  0  0  0  0  0  0  0  0  0  0  0
    9.8530   13.5050   18.1800 H   0  0  0  0  0  0  0  0  0  0  0  0
    9.9280   13.8900   19.9000 H   0  0  0  0  0  0  0  0  0  0  0  0
  1 42  1  0  0  0  0
  1  6  1  0  0  0  0
  2  1  2  0  0  0  0
  3  2  1  0  0  0  0
  3  4  2  0  0  0  0
  4  5  1  0  0  0  0
  5  6  2  0  0  0  0
  5 10  1  0  0  0  0
  6  9  1  0  0  0  0
  7  2  1  0  0  0  0
  8  3  1  0  0  0  0
 10 12  2  0  0  0  0
 10 11  1  0  0  0  0
 11 14  1  0  0  0  0
 13 11  1  0  0  0  0
 15  4  1  0  0  0  0
 15 16  1  0  0  0  0
 17 15  1  0  0  0  0
 18 15  1  0  0  0  0
 18 19  1  0  0  0  0
 19 20  2  0  0  0  0
 21 19  1  0  0  0  0
 21 24  1  0  0  0  0
 22 18  1  0  0  0  0
 23 21  1  0  0  0  0
 24 33  1  1  0  0  0
 25 26  1  0  0  0  0
 25 34  1  0  0  0  0
 25 24  1  0  0  0  0
 26 36  1  0  0  0  0
 27 26  1  0  0  0  0
 27 32  1  0  0  0  0
 28 27  2  0  0  0  0
 29 28  1  0  0  0  0
 29 30  2  0  0  0  0
 30 40  1  0  0  0  0
 30 31  1  0  0  0  0
 31 41  1  0  0  0  0
 32 31  2  0  0  0  0
 32 24  1  0  0  0  0
 35 25  1  0  0  0  0
 37 26  1  0  0  0  0
 38 28  1  0  0  0  0
 39 29  1  0  0  0  0
 42 43  1  0  0  0  0
 43 45  1  0  0  0  0
 43 44  1  0  0  0  0
 46 43  1  0  0  0  0
 47 49  1  0  0  0  0
 47 42  1  0  0  0  0
 48 47  1  0  0  0  0
 50 55  1  0  0  0  0
 51 52  1  0  0  0  0
 51 50  2  0  0  0  0
 52 53  2  0  0  0  0
 53 47  1  0  0  0  0
 53 54  1  0  0  0  0
 54 58  1  0  0  0  0
 55 54  2  0  0  0  0
 55 59  1  0  0  0  0
 56 51  1  0  0  0  0
 57 52  1  0  0  0  0
 60 50  1  0  0  0  0
 60 63  1  0  0  0  0
 61 60  1  0  0  0  0
 62 60  1  0  0  0  0
M  END
>  <MODEL>
3

>  <REMARK>
 VINA RESULT:    -7.729      4.437      8.822
 INTER + INTRA:         -12.200
 INTER:                 -10.730
 INTRA:                  -1.469
 UNBOUND:                -0.856
  Name = 
  9 active torsions:
  status: ('A' for Active; 'I' for Inactive)
    1  A    between atoms: C_1  and  C_2
    2  A    between atoms: C_5  and  C_6
    3  A    between atoms: C_6  and  N_7
    4  A    between atoms: N_7  and  C_8
    5  A    between atoms: N_7  and  C_9
    6  A    between atoms: C_12  and  C_13
    7  A    between atoms: C_13  and  N_14
    8  A    between atoms: N_17  and  C_18
    9  A    between atoms: C_27  and  C_28
                            x       y       z     vdW  Elec       q    Type
                         _______ _______ _______ _____ _____    ______ ____

>  <TORSDO>
F 9

$$$$
=
 OpenBabel07192307433D

 63 66  0  0  1  0  0  0  0  0999 V2000
    4.0700    5.0930   17.9340 C   0  0  0  0  0  0  0  0  0  0  0  0
    3.7450    6.4560   17.9290 C   0  0  0  0  0  0  0  0  0  0  0  0
    2.8670    7.0110   18.8680 C   0  0  0  0  0  0  0  0  0  0  0  0
    2.2680    6.2170   19.8550 C   0  0  0  0  0  0  0  0  0  0  0  0
    2.5530    4.8410   19.8580 C   0  0  0  0  0  0  0  0  0  0  0  0
    3.4490    4.3020   18.9130 C   0  0  0  0  0  0  0  0  0  0  0  0
    4.1470    7.1120   17.1610 H   0  0  0  0  0  0  0  0  0  0  0  0
    2.6320    8.0720   18.8010 H   0  0  0  0  0  0  0  0  0  0  0  0
    3.6950    3.2460   18.9810 H   0  0  0  0  0  0  0  0  0  0  0  0
    1.9240    3.9220   20.8510 C   0  0  0  0  0  0  0  0  0  0  0  0
    0.7490    3.3310   20.4760 N   0  0  0  0  0  0  0  0  0  0  0  0
    2.3970    3.7130   21.9590 O   0  0  0  0  0  0  0  0  0  0  0  0
    0.2240    3.6330   19.6680 H   0  0  0  0  0  0  0  0  0  0  0  0
    0.2830    2.7630   21.1700 H   0  0  0  0  0  0  0  0  0  0  0  0
    1.3060    6.8620   20.8200 C   0  0  0  0  0  0  0  0  0  0  0  0
    0.4020    6.2550   20.9340 H   0  0  0  0  0  0  0  0  0  0  0  0
    1.7460    6.9350   21.8230 H   0  0  0  0  0  0  0  0  0  0  0  0
    0.9260    8.1830   20.3750 N   0  0  0  0  0  0  0  0  0  0  0  0
    1.0510    9.2720   21.1880 C   0  0  0  0  0  0  0  0  0  0  0  0
    1.4790    9.2360   22.3330 O   0  0  0  0  0  0  0  0  0  0  0  0
    0.6610   10.4160   20.5410 N   0  0  0  0  0  0  0  0  0  0  0  0
    0.2180    8.2250   19.6530 H   0  0  0  0  0  0  0  0  0  0  0  0
    0.8210   10.3810   19.5480 H   0  0  0  0  0  0  0  0  0  0  0  0
    0.8820   11.6920   21.1840 C   0  0  2  0  0  0  0  0  0  0  0  0
   -0.3920   12.2390   21.8640 C   0  0  0  0  0  0  0  0  0  0  0  0
   -0.2610   13.7650   21.8580 C   0  0  0  0  0  0  0  0  0  0  0  0
    0.5380   13.9880   20.6120 C   0  0  0  0  0  0  0  0  0  0  0  0
    0.7210   15.1740   19.9240 C   0  0  0  0  0  0  0  0  0  0  0  0
    1.5650   15.1740   18.8120 C   0  0  0  0  0  0  0  0  0  0  0  0
    2.2230   14.0000   18.4160 C   0  0  0  0  0  0  0  0  0  0  0  0
    2.0450   12.8090   19.1250 C   0  0  0  0  0  0  0  0  0  0  0  0
    1.1900   12.8090   20.2190 C   0  0  0  0  0  0  0  0  0  0  0  0
    1.7030   11.6040   21.9070 H   0  0  0  0  0  0  0  0  0  0  0  0
   -0.5290   11.8410   22.8760 H   0  0  0  0  0  0  0  0  0  0  0  0
   -1.2810   11.9520   21.2870 H   0  0  0  0  0  0  0  0  0  0  0  0
    0.2990   14.1150   22.7320 H   0  0  0  0  0  0  0  0  0  0  0  0
   -1.2370   14.2540   21.8210 H   0  0  0  0  0  0  0  0  0  0  0  0
    0.2260   16.0880   20.2420 H   0  0  0  0  0  0  0  0  0  0  0  0
    1.7230   16.0960   18.2570 H   0  0  0  0  0  0  0  0  0  0  0  0
    2.8870   14.0220   17.5560 H   0  0  0  0  0  0  0  0  0  0  0  0
    2.5810   11.9140   18.8260 H   0  0  0  0  0  0  0  0  0  0  0  0
    4.9470    4.5700   16.9790 N   0  0  0  0  0  0  0  0  0  0  0  0
    4.4350    3.6270   15.9870 C   0  0  0  0  0  0  0  0  0  0  0  0
    3.8900    4.1510   15.1950 H   0  0  0  0  0  0  0  0  0  0  0  0
    3.7780    2.8750   16.4420 H   0  0  0  0  0  0  0  0  0  0  0  0
    5.2660    3.0970   15.5020 H   0  0  0  0  0  0  0  0  0  0  0  0
    6.3510    4.3750   17.3840 C   0  0  0  0  0  0  0  0  0  0  0  0
    6.3800    3.7140   18.2600 H   0  0  0  0  0  0  0  0  0  0  0  0
    6.9370    3.8430   16.6270 H   0  0  0  0  0  0  0  0  0  0  0  0
    8.2750    8.1240   18.4080 C   0  0  0  0  0  0  0  0  0  0  0  0
    7.5760    7.9910   17.2030 C   0  0  0  0  0  0  0  0  0  0  0  0
    6.9590    6.7820   16.8720 C   0  0  0  0  0  0  0  0  0  0  0  0
    7.0420    5.6780   17.7320 C   0  0  0  0  0  0  0  0  0  0  0  0
    7.7580    5.8110   18.9300 C   0  0  0  0  0  0  0  0  0  0  0  0
    8.3720    7.0210   19.2620 C   0  0  0  0  0  0  0  0  0  0  0  0
    7.4980    8.8300   16.5160 H   0  0  0  0  0  0  0  0  0  0  0  0
    6.4070    6.7060   15.9380 H   0  0  0  0  0  0  0  0  0  0  0  0
    7.8420    4.9700   19.6170 H   0  0  0  0  0  0  0  0  0  0  0  0
    8.9210    7.1000   20.1960 H   0  0  0  0  0  0  0  0  0  0  0  0
    8.9540    9.4160   18.7500 C   0  0  0  0  0  0  0  0  0  0  0  0
    8.8660    9.6120   19.8230 H   0  0  0  0  0  0  0  0  0  0  0  0
    8.5060   10.2520   18.2020 H   0  0  0  0  0  0  0  0  0  0  0  0
   10.0150    9.3810   18.4800 H   0  0  0  0  0  0  0  0  0  0  0  0
  1  6  1  0  0  0  0
  2  1  2  0  0  0  0
  2  3  1  0  0  0  0
  3  4  2  0  0  0  0
  4  5  1  0  0  0  0
  4 15  1  0  0  0  0
  5 10  1  0  0  0  0
  6  9  1  0  0  0  0
  6  5  2  0  0  0  0
  7  2  1  0  0  0  0
  8  3  1  0  0  0  0
 10 12  2  0  0  0  0
 11 10  1  0  0  0  0
 11 14  1  0  0  0  0
 13 11  1  0  0  0  0
 15 16  1  0  0  0  0
 15 17  1  0  0  0  0
 18 15  1  0  0  0  0
 18 19  1  0  0  0  0
 19 20  2  0  0  0  0
 21 24  1  0  0  0  0
 21 19  1  0  0  0  0
 22 18  1  0  0  0  0
 23 21  1  0  0  0  0
 24 25  1  0  0  0  0
 24 33  1  1  0  0  0
 25 34  1  0  0  0  0
 26 25  1  0  0  0  0
 26 36  1  0  0  0  0
 27 26  1  0  0  0  0
 28 38  1  0  0  0  0
 28 27  2  0  0  0  0
 29 28  1  0  0  0  0
 30 29  2  0  0  0  0
 30 31  1  0  0  0  0
 31 32  2  0  0  0  0
 32 27  1  0  0  0  0
 32 24  1  0  0  0  0
 35 25  1  0  0  0  0
 37 26  1  0  0  0  0
 39 29  1  0  0  0  0
 40 30  1  0  0  0  0
 41 31  1  0  0  0  0
 42 47  1  0  0  0  0
 42  1  1  0  0  0  0
 43 45  1  0  0  0  0
 43 42  1  0  0  0  0
 44 43  1  0  0  0  0
 46 43  1  0  0  0  0
 47 53  1  0  0  0  0
 47 48  1  0  0  0  0
 49 47  1  0  0  0  0
 50 60  1  0  0  0  0
 50 55  1  0  0  0  0
 51 50  2  0  0  0  0
 52 51  1  0  0  0  0
 52 53  2  0  0  0  0
 53 54  1  0  0  0  0
 54 55  2  0  0  0  0
 54 58  1  0  0  0  0
 55 59  1  0  0  0  0
 56 51  1  0  0  0  0
 57 52  1  0  0  0  0
 60 61  1  0  0  0  0
 62 60  1  0  0  0  0
 63 60  1  0  0  0  0
M  END
>  <MODEL>
4

>  <REMARK>
 VINA RESULT:    -7.593      3.095      4.070
 INTER + INTRA:         -12.001
 INTER:                 -10.883
 INTRA:                  -1.118
 UNBOUND:                -0.856
  Name = 
  9 active torsions:
  status: ('A' for Active; 'I' for Inactive)
    1  A    between atoms: C_1  and  C_2
    2  A    between atoms: C_5  and  C_6
    3  A    between atoms: C_6  and  N_7
    4  A    between atoms: N_7  and  C_8
    5  A    between atoms: N_7  and  C_9
    6  A    between atoms: C_12  and  C_13
    7  A    between atoms: C_13  and  N_14
    8  A    between atoms: N_17  and  C_18
    9  A    between atoms: C_27  and  C_28
                            x       y       z     vdW  Elec       q    Type
                         _______ _______ _______ _____ _____    ______ ____

>  <TORSDO>
F 9

$$$$
=
 OpenBabel07192307433D

 63 66  0  0  1  0  0  0  0  0999 V2000
    5.7160    6.1860   18.2340 C   0  0  0  0  0  0  0  0  0  0  0  0
    5.1630    7.1520   17.3830 C   0  0  0  0  0  0  0  0  0  0  0  0
    3.7850    7.3960   17.3350 C   0  0  0  0  0  0  0  0  0  0  0  0
    2.8950    6.6740   18.1400 C   0  0  0  0  0  0  0  0  0  0  0  0
    3.4240    5.6770   18.9780 C   0  0  0  0  0  0  0  0  0  0  0  0
    4.8150    5.4530   19.0220 C   0  0  0  0  0  0  0  0  0  0  0  0
    5.8010    7.7150   16.7050 H   0  0  0  0  0  0  0  0  0  0  0  0
    3.4090    8.1420   16.6360 H   0  0  0  0  0  0  0  0  0  0  0  0
    5.1960    4.7170   19.7240 H   0  0  0  0  0  0  0  0  0  0  0  0
    2.5380    4.8360   19.8360 C   0  0  0  0  0  0  0  0  0  0  0  0
    2.3120    5.2870   21.1070 N   0  0  0  0  0  0  0  0  0  0  0  0
    2.0510    3.7810   19.4570 O   0  0  0  0  0  0  0  0  0  0  0  0
    2.8550    6.0310   21.5220 H   0  0  0  0  0  0  0  0  0  0  0  0
    1.7710    4.6870   21.7140 H   0  0  0  0  0  0  0  0  0  0  0  0
    1.4190    6.9560   18.0260 C   0  0  0  0  0  0  0  0  0  0  0  0
    0.9640    6.3420   17.2420 H   0  0  0  0  0  0  0  0  0  0  0  0
    0.8950    6.6940   18.9540 H   0  0  0  0  0  0  0  0  0  0  0  0
    1.1750    8.3480   17.7240 N   0  0  0  0  0  0  0  0  0  0  0  0
    0.9120    9.2550   18.7100 C   0  0  0  0  0  0  0  0  0  0  0  0
    0.8560    8.9850   19.9020 O   0  0  0  0  0  0  0  0  0  0  0  0
    0.7480   10.5130   18.1910 N   0  0  0  0  0  0  0  0  0  0  0  0
    0.8080    8.5490   16.8030 H   0  0  0  0  0  0  0  0  0  0  0  0
    1.2880   10.6670   17.3560 H   0  0  0  0  0  0  0  0  0  0  0  0
    0.6300   11.6330   19.0970 C   0  0  2  0  0  0  0  0  0  0  0  0
   -0.7760   12.2700   19.0670 C   0  0  0  0  0  0  0  0  0  0  0  0
   -0.5890   13.7430   19.4480 C   0  0  0  0  0  0  0  0  0  0  0  0
    0.7850   14.0120   18.9180 C   0  0  0  0  0  0  0  0  0  0  0  0
    1.3840   15.2410   18.7040 C   0  0  0  0  0  0  0  0  0  0  0  0
    2.7080   15.2660   18.2610 C   0  0  0  0  0  0  0  0  0  0  0  0
    3.4140   14.0720   18.0570 C   0  0  0  0  0  0  0  0  0  0  0  0
    2.8080   12.8350   18.2900 C   0  0  0  0  0  0  0  0  0  0  0  0
    1.4850   12.8140   18.7110 C   0  0  0  0  0  0  0  0  0  0  0  0
    0.8920   11.3140   20.1140 H   0  0  0  0  0  0  0  0  0  0  0  0
   -1.4820   11.7590   19.7320 H   0  0  0  0  0  0  0  0  0  0  0  0
   -1.1960   12.2120   18.0530 H   0  0  0  0  0  0  0  0  0  0  0  0
   -0.6050   13.8720   20.5350 H   0  0  0  0  0  0  0  0  0  0  0  0
   -1.3470   14.3790   18.9850 H   0  0  0  0  0  0  0  0  0  0  0  0
    0.8420   16.1660   18.8800 H   0  0  0  0  0  0  0  0  0  0  0  0
    3.1980   16.2210   18.0870 H   0  0  0  0  0  0  0  0  0  0  0  0
    4.4490   14.1120   17.7250 H   0  0  0  0  0  0  0  0  0  0  0  0
    3.3730   11.9190   18.1550 H   0  0  0  0  0  0  0  0  0  0  0  0
    7.0960    5.9650   18.2530 N   0  0  0  0  0  0  0  0  0  0  0  0
    7.9980    7.1100   18.1550 C   0  0  0  0  0  0  0  0  0  0  0  0
    8.9890    6.8610   18.5520 H   0  0  0  0  0  0  0  0  0  0  0  0
    7.6050    7.9850   18.6880 H   0  0  0  0  0  0  0  0  0  0  0  0
    8.1410    7.3930   17.1040 H   0  0  0  0  0  0  0  0  0  0  0  0
    7.5890    4.7080   17.6610 C   0  0  0  0  0  0  0  0  0  0  0  0
    8.6830    4.7550   17.5870 H   0  0  0  0  0  0  0  0  0  0  0  0
    7.4010    3.8400   18.3020 H   0  0  0  0  0  0  0  0  0  0  0  0
    5.9890    3.9270   13.7080 C   0  0  0  0  0  0  0  0  0  0  0  0
    7.1020    4.7590   13.8720 C   0  0  0  0  0  0  0  0  0  0  0  0
    7.6150    5.0130   15.1460 C   0  0  0  0  0  0  0  0  0  0  0  0
    7.0160    4.4510   16.2820 C   0  0  0  0  0  0  0  0  0  0  0  0
    5.8910    3.6320   16.1150 C   0  0  0  0  0  0  0  0  0  0  0  0
    5.3810    3.3760   14.8400 C   0  0  0  0  0  0  0  0  0  0  0  0
    7.5840    5.2100   13.0070 H   0  0  0  0  0  0  0  0  0  0  0  0
    8.4910    5.6500   15.2480 H   0  0  0  0  0  0  0  0  0  0  0  0
    5.4030    3.1850   16.9790 H   0  0  0  0  0  0  0  0  0  0  0  0
    4.5080    2.7370   14.7360 H   0  0  0  0  0  0  0  0  0  0  0  0
    5.4280    3.6730   12.3400 C   0  0  0  0  0  0  0  0  0  0  0  0
    4.9850    4.5910   11.9420 H   0  0  0  0  0  0  0  0  0  0  0  0
    4.6600    2.8940   12.3690 H   0  0  0  0  0  0  0  0  0  0  0  0
    6.2130    3.3320   11.6560 H   0  0  0  0  0  0  0  0  0  0  0  0
  1 42  1  0  0  0  0
  1  6  1  0  0  0  0
  2  1  2  0  0  0  0
  3  2  1  0  0  0  0
  3  4  2  0  0  0  0
  4  5  1  0  0  0  0
  5  6  2  0  0  0  0
  5 10  1  0  0  0  0
  6  9  1  0  0  0  0
  7  2  1  0  0  0  0
  8  3  1  0  0  0  0
 10 11  1  0  0  0  0
 11 13  1  0  0  0  0
 11 14  1  0  0  0  0
 12 10  2  0  0  0  0
 15  4  1  0  0  0  0
 15 17  1  0  0  0  0
 16 15  1  0  0  0  0
 18 15  1  0  0  0  0
 18 19  1  0  0  0  0
 19 20  2  0  0  0  0
 21 19  1  0  0  0  0
 21 24  1  0  0  0  0
 22 18  1  0  0  0  0
 23 21  1  0  0  0  0
 24 33  1  1  0  0  0
 25 24  1  0  0  0  0
 25 26  1  0  0  0  0
 25 34  1  0  0  0  0
 26 36  1  0  0  0  0
 27 26  1  0  0  0  0
 28 38  1  0  0  0  0
 28 27  2  0  0  0  0
 29 28  1  0  0  0  0
 30 29  2  0  0  0  0
 30 31  1  0  0  0  0
 31 32  2  0  0  0  0
 32 27  1  0  0  0  0
 32 24  1  0  0  0  0
 35 25  1  0  0  0  0
 37 26  1  0  0  0  0
 39 29  1  0  0  0  0
 40 30  1  0  0  0  0
 41 31  1  0  0  0  0
 43 42  1  0  0  0  0
 43 44  1  0  0  0  0
 43 45  1  0  0  0  0
 46 43  1  0  0  0  0
 47 42  1  0  0  0  0
 47 49  1  0  0  0  0
 48 47  1  0  0  0  0
 50 51  2  0  0  0  0
 50 55  1  0  0  0  0
 51 52  1  0  0  0  0
 52 57  1  0  0  0  0
 52 53  2  0  0  0  0
 53 47  1  0  0  0  0
 54 53  1  0  0  0  0
 54 58  1  0  0  0  0
 55 54  2  0  0  0  0
 56 51  1  0  0  0  0
 59 55  1  0  0  0  0
 60 62  1  0  0  0  0
 60 50  1  0  0  0  0
 61 60  1  0  0  0  0
 63 60  1  0  0  0  0
M  END
>  <MODEL>
5

>  <REMARK>
 VINA RESULT:    -7.470      3.015      4.595
 INTER + INTRA:         -11.819
 INTER:                 -10.438
 INTRA:                  -1.381
 UNBOUND:                -0.856
  Name = 
  9 active torsions:
  status: ('A' for Active; 'I' for Inactive)
    1  A    between atoms: C_1  and  C_2
    2  A    between atoms: C_5  and  C_6
    3  A    between atoms: C_6  and  N_7
    4  A    between atoms: N_7  and  C_8
    5  A    between atoms: N_7  and  C_9
    6  A    between atoms: C_12  and  C_13
    7  A    between atoms: C_13  and  N_14
    8  A    between atoms: N_17  and  C_18
    9  A    between atoms: C_27  and  C_28
                            x       y       z     vdW  Elec       q    Type
                         _______ _______ _______ _____ _____    ______ ____

>  <TORSDO>
F 9

$$$$
=
 OpenBabel07192307433D

 63 66  0  0  1  0  0  0  0  0999 V2000
    4.0130    5.1160   17.9970 C   0  0  0  0  0  0  0  0  0  0  0  0
    3.7010    6.4800   18.0650 C   0  0  0  0  0  0  0  0  0  0  0  0
    2.8260    6.9930   19.0300 C   0  0  0  0  0  0  0  0  0  0  0  0
    2.2180    6.1530   19.9730 C   0  0  0  0  0  0  0  0  0  0  0  0
    2.4910    4.7760   19.9030 C   0  0  0  0  0  0  0  0  0  0  0  0
    3.3830    4.2800   18.9320 C   0  0  0  0  0  0  0  0  0  0  0  0
    4.1110    7.1730   17.3330 H   0  0  0  0  0  0  0  0  0  0  0  0
    2.6010    8.0580   19.0200 H   0  0  0  0  0  0  0  0  0  0  0  0
    3.6190    3.2190   18.9440 H   0  0  0  0  0  0  0  0  0  0  0  0
    1.8510    3.8110   20.8440 C   0  0  0  0  0  0  0  0  0  0  0  0
    0.6720    3.2510   20.4360 N   0  0  0  0  0  0  0  0  0  0  0  0
    2.3190    3.5400   21.9410 O   0  0  0  0  0  0  0  0  0  0  0  0
    0.1520    3.6000   19.6440 H   0  0  0  0  0  0  0  0  0  0  0  0
    0.1990    2.6510   21.0990 H   0  0  0  0  0  0  0  0  0  0  0  0
    1.2600    6.7540   20.9700 C   0  0  0  0  0  0  0  0  0  0  0  0
    0.2270    6.6720   20.6170 H   0  0  0  0  0  0  0  0  0  0  0  0
    1.2960    6.2130   21.9240 H   0  0  0  0  0  0  0  0  0  0  0  0
    1.5600    8.1480   21.2070 N   0  0  0  0  0  0  0  0  0  0  0  0
    0.5840    9.1010   21.1790 C   0  0  0  0  0  0  0  0  0  0  0  0
   -0.5970    8.8770   20.9550 O   0  0  0  0  0  0  0  0  0  0  0  0
    1.0990   10.3400   21.4630 N   0  0  0  0  0  0  0  0  0  0  0  0
    2.5030    8.4460   20.9890 H   0  0  0  0  0  0  0  0  0  0  0  0
    1.8920   10.3040   22.0820 H   0  0  0  0  0  0  0  0  0  0  0  0
    0.1900   11.4490   21.6460 C   0  0  2  0  0  0  0  0  0  0  0  0
   -0.8440   11.1850   22.7620 C   0  0  0  0  0  0  0  0  0  0  0  0
   -2.0860   12.0060   22.4000 C   0  0  0  0  0  0  0  0  0  0  0  0
   -2.0130   12.0080   20.9050 C   0  0  0  0  0  0  0  0  0  0  0  0
   -3.0140   12.3390   20.0080 C   0  0  0  0  0  0  0  0  0  0  0  0
   -2.7120   12.3350   18.6450 C   0  0  0  0  0  0  0  0  0  0  0  0
   -1.4200   12.0200   18.2020 C   0  0  0  0  0  0  0  0  0  0  0  0
   -0.4100   11.7010   19.1140 C   0  0  0  0  0  0  0  0  0  0  0  0
   -0.7190   11.6870   20.4670 C   0  0  0  0  0  0  0  0  0  0  0  0
    0.7610   12.3640   21.8520 H   0  0  0  0  0  0  0  0  0  0  0  0
   -0.4600   11.4380   23.7570 H   0  0  0  0  0  0  0  0  0  0  0  0
   -1.1120   10.1200   22.7850 H   0  0  0  0  0  0  0  0  0  0  0  0
   -2.0060   13.0300   22.7810 H   0  0  0  0  0  0  0  0  0  0  0  0
   -3.0010   11.5400   22.7730 H   0  0  0  0  0  0  0  0  0  0  0  0
   -4.0100   12.6010   20.3530 H   0  0  0  0  0  0  0  0  0  0  0  0
   -3.4840   12.5930   17.9230 H   0  0  0  0  0  0  0  0  0  0  0  0
   -1.2000   12.0360   17.1370 H   0  0  0  0  0  0  0  0  0  0  0  0
    0.5930   11.4860   18.7600 H   0  0  0  0  0  0  0  0  0  0  0  0
    4.8870    4.6370   17.0170 N   0  0  0  0  0  0  0  0  0  0  0  0
    4.3750    3.7280   15.9940 C   0  0  0  0  0  0  0  0  0  0  0  0
    5.1160    3.5760   15.2010 H   0  0  0  0  0  0  0  0  0  0  0  0
    3.4430    4.0980   15.5510 H   0  0  0  0  0  0  0  0  0  0  0  0
    4.1720    2.7400   16.4300 H   0  0  0  0  0  0  0  0  0  0  0  0
    6.2960    4.4380   17.4050 C   0  0  0  0  0  0  0  0  0  0  0  0
    6.3350    3.7620   18.2690 H   0  0  0  0  0  0  0  0  0  0  0  0
    6.8750    3.9190   16.6330 H   0  0  0  0  0  0  0  0  0  0  0  0
    8.3270    8.1320   18.4170 C   0  0  0  0  0  0  0  0  0  0  0  0
    8.3940    7.0280   19.2730 C   0  0  0  0  0  0  0  0  0  0  0  0
    7.7370    5.8380   18.9480 C   0  0  0  0  0  0  0  0  0  0  0  0
    6.9880    5.7350   17.7680 C   0  0  0  0  0  0  0  0  0  0  0  0
    6.9080    6.8510   16.9220 C   0  0  0  0  0  0  0  0  0  0  0  0
    7.5680    8.0380   17.2460 C   0  0  0  0  0  0  0  0  0  0  0  0
    8.9670    7.0810   20.1960 H   0  0  0  0  0  0  0  0  0  0  0  0
    7.8180    4.9870   19.6210 H   0  0  0  0  0  0  0  0  0  0  0  0
    6.3310    6.8010   16.0010 H   0  0  0  0  0  0  0  0  0  0  0  0
    7.4920    8.8880   16.5740 H   0  0  0  0  0  0  0  0  0  0  0  0
    9.0160    9.4140   18.7800 C   0  0  0  0  0  0  0  0  0  0  0  0
    8.3260   10.0690   19.3220 H   0  0  0  0  0  0  0  0  0  0  0  0
    9.3690    9.9370   17.8850 H   0  0  0  0  0  0  0  0  0  0  0  0
    9.8910    9.2200   19.4100 H   0  0  0  0  0  0  0  0  0  0  0  0
  1  2  2  0  0  0  0
  1  6  1  0  0  0  0
  2  3  1  0  0  0  0
  3  4  2  0  0  0  0
  4 15  1  0  0  0  0
  5  4  1  0  0  0  0
  5 10  1  0  0  0  0
  6  9  1  0  0  0  0
  6  5  2  0  0  0  0
  7  2  1  0  0  0  0
  8  3  1  0  0  0  0
 10 12  2  0  0  0  0
 11 10  1  0  0  0  0
 11 14  1  0  0  0  0
 13 11  1  0  0  0  0
 15 18  1  0  0  0  0
 15 17  1  0  0  0  0
 16 15  1  0  0  0  0
 19 18  1  0  0  0  0
 19 21  1  0  0  0  0
 20 19  2  0  0  0  0
 21 24  1  0  0  0  0
 21 23  1  0  0  0  0
 22 18  1  0  0  0  0
 24 33  1  1  0  0  0
 24 25  1  0  0  0  0
 25 35  1  0  0  0  0
 25 34  1  0  0  0  0
 26 25  1  0  0  0  0
 26 37  1  0  0  0  0
 26 36  1  0  0  0  0
 27 26  1  0  0  0  0
 28 38  1  0  0  0  0
 28 27  2  0  0  0  0
 29 28  1  0  0  0  0
 30 29  2  0  0  0  0
 30 31  1  0  0  0  0
 31 32  2  0  0  0  0
 32 27  1  0  0  0  0
 32 24  1  0  0  0  0
 39 29  1  0  0  0  0
 40 30  1  0  0  0  0
 41 31  1  0  0  0  0
 42 47  1  0  0  0  0
 42  1  1  0  0  0  0
 43 46  1  0  0  0  0
 43 42  1  0  0  0  0
 44 43  1  0  0  0  0
 45 43  1  0  0  0  0
 47 53  1  0  0  0  0
 47 48  1  0  0  0  0
 49 47  1  0  0  0  0
 50 60  1  0  0  0  0
 50 51  1  0  0  0  0
 51 56  1  0  0  0  0
 52 51  2  0  0  0  0
 52 57  1  0  0  0  0
 53 52  1  0  0  0  0
 54 55  1  0  0  0  0
 54 53  2  0  0  0  0
 55 50  2  0  0  0  0
 58 54  1  0  0  0  0
 59 55  1  0  0  0  0
 60 61  1  0  0  0  0
 60 63  1  0  0  0  0
 62 60  1  0  0  0  0
M  END
>  <MODEL>
6

>  <REMARK>
 VINA RESULT:    -7.430      2.081      3.492
 INTER + INTRA:         -11.761
 INTER:                 -11.509
 INTRA:                  -0.253
 UNBOUND:                -0.856
  Name = 
  9 active torsions:
  status: ('A' for Active; 'I' for Inactive)
    1  A    between atoms: C_1  and  C_2
    2  A    between atoms: C_5  and  C_6
    3  A    between atoms: C_6  and  N_7
    4  A    between atoms: N_7  and  C_8
    5  A    between atoms: N_7  and  C_9
    6  A    between atoms: C_12  and  C_13
    7  A    between atoms: C_13  and  N_14
    8  A    between atoms: N_17  and  C_18
    9  A    between atoms: C_27  and  C_28
                            x       y       z     vdW  Elec       q    Type
                         _______ _______ _______ _____ _____    ______ ____

>  <TORSDO>
F 9

$$$$
=
 OpenBabel07192307433D

 63 66  0  0  1  0  0  0  0  0999 V2000
    4.3670    5.4570   17.4230 C   0  0  0  0  0  0  0  0  0  0  0  0
    4.1630    6.8120   17.1320 C   0  0  0  0  0  0  0  0  0  0  0  0
    3.2940    7.6090   17.8870 C   0  0  0  0  0  0  0  0  0  0  0  0
    2.5830    7.0770   18.9700 C   0  0  0  0  0  0  0  0  0  0  0  0
    2.7470    5.7110   19.2610 C   0  0  0  0  0  0  0  0  0  0  0  0
    3.6360    4.9270   18.4970 C   0  0  0  0  0  0  0  0  0  0  0  0
    4.6560    7.2690   16.2760 H   0  0  0  0  0  0  0  0  0  0  0  0
    3.1560    8.6500   17.5990 H   0  0  0  0  0  0  0  0  0  0  0  0
    3.7850    3.8910   18.7860 H   0  0  0  0  0  0  0  0  0  0  0  0
    1.9950    5.0600   20.3720 C   0  0  0  0  0  0  0  0  0  0  0  0
    2.6880    4.8360   21.5290 N   0  0  0  0  0  0  0  0  0  0  0  0
    0.8280    4.7100   20.2720 O   0  0  0  0  0  0  0  0  0  0  0  0
    3.6940    4.9160   21.5830 H   0  0  0  0  0  0  0  0  0  0  0  0
    2.2050    4.3320   22.2600 H   0  0  0  0  0  0  0  0  0  0  0  0
    1.6370    7.9730   19.7290 C   0  0  0  0  0  0  0  0  0  0  0  0
    0.6790    7.4720   19.9010 H   0  0  0  0  0  0  0  0  0  0  0  0
    2.0350    8.2100   20.7240 H   0  0  0  0  0  0  0  0  0  0  0  0
    1.3960    9.2040   19.0120 N   0  0  0  0  0  0  0  0  0  0  0  0
    0.2430    9.9140   19.1830 C   0  0  0  0  0  0  0  0  0  0  0  0
   -0.6670    9.5870   19.9320 O   0  0  0  0  0  0  0  0  0  0  0  0
    0.2530   11.0570   18.4260 N   0  0  0  0  0  0  0  0  0  0  0  0
    1.8730    9.3050   18.1250 H   0  0  0  0  0  0  0  0  0  0  0  0
    1.1770   11.4290   18.2870 H   0  0  0  0  0  0  0  0  0  0  0  0
   -0.8090   12.0220   18.6050 C   0  0  2  0  0  0  0  0  0  0  0  0
   -1.2040   12.1960   20.0870 C   0  0  0  0  0  0  0  0  0  0  0  0
   -2.6770   12.6200   20.0920 C   0  0  0  0  0  0  0  0  0  0  0  0
   -3.1840   11.9380   18.8600 C   0  0  0  0  0  0  0  0  0  0  0  0
   -4.5000   11.7100   18.5000 C   0  0  0  0  0  0  0  0  0  0  0  0
   -4.7570   11.1080   17.2660 C   0  0  0  0  0  0  0  0  0  0  0  0
   -3.7020   10.7620   16.4090 C   0  0  0  0  0  0  0  0  0  0  0  0
   -2.3760   11.0100   16.7720 C   0  0  0  0  0  0  0  0  0  0  0  0
   -2.1240   11.5900   18.0080 C   0  0  0  0  0  0  0  0  0  0  0  0
   -0.5110   12.9830   18.1650 H   0  0  0  0  0  0  0  0  0  0  0  0
   -0.5660   12.9190   20.6080 H   0  0  0  0  0  0  0  0  0  0  0  0
   -1.1040   11.2400   20.6200 H   0  0  0  0  0  0  0  0  0  0  0  0
   -2.7730   13.7060   19.9880 H   0  0  0  0  0  0  0  0  0  0  0  0
   -3.1900   12.2850   20.9960 H   0  0  0  0  0  0  0  0  0  0  0  0
   -5.3180   11.9940   19.1560 H   0  0  0  0  0  0  0  0  0  0  0  0
   -5.7840   10.9200   16.9630 H   0  0  0  0  0  0  0  0  0  0  0  0
   -3.9220   10.3080   15.4450 H   0  0  0  0  0  0  0  0  0  0  0  0
   -1.5700   10.7640   16.0890 H   0  0  0  0  0  0  0  0  0  0  0  0
    5.2390    4.6890   16.6460 N   0  0  0  0  0  0  0  0  0  0  0  0
    4.6970    3.5870   15.8520 C   0  0  0  0  0  0  0  0  0  0  0  0
    3.9020    3.9400   15.1870 H   0  0  0  0  0  0  0  0  0  0  0  0
    4.3070    2.7820   16.4870 H   0  0  0  0  0  0  0  0  0  0  0  0
    5.4800    3.1600   15.2110 H   0  0  0  0  0  0  0  0  0  0  0  0
    6.6110    4.5000   17.1520 C   0  0  0  0  0  0  0  0  0  0  0  0
    6.5840    3.8030   18.0000 H   0  0  0  0  0  0  0  0  0  0  0  0
    7.2640    4.0090   16.4230 H   0  0  0  0  0  0  0  0  0  0  0  0
    8.3740    8.2340   18.4740 C   0  0  0  0  0  0  0  0  0  0  0  0
    7.8060    8.1290   17.2000 C   0  0  0  0  0  0  0  0  0  0  0  0
    7.2410    6.9250   16.7730 C   0  0  0  0  0  0  0  0  0  0  0  0
    7.2460    5.7980   17.6070 C   0  0  0  0  0  0  0  0  0  0  0  0
    7.8320    5.9030   18.8760 C   0  0  0  0  0  0  0  0  0  0  0  0
    8.3950    7.1080   19.3030 C   0  0  0  0  0  0  0  0  0  0  0  0
    7.7910    8.9870   16.5320 H   0  0  0  0  0  0  0  0  0  0  0  0
    6.7900    6.8720   15.7850 H   0  0  0  0  0  0  0  0  0  0  0  0
    7.8540    5.0430   19.5440 H   0  0  0  0  0  0  0  0  0  0  0  0
    8.8420    7.1640   20.2920 H   0  0  0  0  0  0  0  0  0  0  0  0
    8.9990    9.5220   18.9210 C   0  0  0  0  0  0  0  0  0  0  0  0
    8.2340   10.3010   18.9970 H   0  0  0  0  0  0  0  0  0  0  0  0
    9.7680    9.8510   18.2150 H   0  0  0  0  0  0  0  0  0  0  0  0
    9.4830    9.4010   19.8960 H   0  0  0  0  0  0  0  0  0  0  0  0
  1  6  1  0  0  0  0
  2  1  2  0  0  0  0
  2  3  1  0  0  0  0
  3  4  2  0  0  0  0
  4  5  1  0  0  0  0
  4 15  1  0  0  0  0
  5 10  1  0  0  0  0
  6  9  1  0  0  0  0
  6  5  2  0  0  0  0
  7  2  1  0  0  0  0
  8  3  1  0  0  0  0
 10 11  1  0  0  0  0
 11 13  1  0  0  0  0
 11 14  1  0  0  0  0
 12 10  2  0  0  0  0
 15 16  1  0  0  0  0
 15 17  1  0  0  0  0
 18 19  1  0  0  0  0
 18 15  1  0  0  0  0
 19 20  2  0  0  0  0
 21 24  1  0  0  0  0
 21 19  1  0  0  0  0
 22 18  1  0  0  0  0
 23 21  1  0  0  0  0
 24 33  1  6  0  0  0
 24 25  1  0  0  0  0
 25 26  1  0  0  0  0
 25 34  1  0  0  0  0
 25 35  1  0  0  0  0
 26 37  1  0  0  0  0
 27 26  1  0  0  0  0
 28 27  1  0  0  0  0
 28 38  1  0  0  0  0
 29 28  2  0  0  0  0
 30 31  2  0  0  0  0
 30 29  1  0  0  0  0
 31 32  1  0  0  0  0
 32 24  1  0  0  0  0
 32 27  2  0  0  0  0
 36 26  1  0  0  0  0
 39 29  1  0  0  0  0
 40 30  1  0  0  0  0
 41 31  1  0  0  0  0
 42 47  1  0  0  0  0
 42  1  1  0  0  0  0
 43 45  1  0  0  0  0
 43 42  1  0  0  0  0
 44 43  1  0  0  0  0
 46 43  1  0  0  0  0
 47 53  1  0  0  0  0
 47 48  1  0  0  0  0
 49 47  1  0  0  0  0
 50 60  1  0  0  0  0
 50 55  1  0  0  0  0
 51 50  2  0  0  0  0
 52 51  1  0  0  0  0
 52 53  2  0  0  0  0
 53 54  1  0  0  0  0
 54 55  2  0  0  0  0
 54 58  1  0  0  0  0
 55 59  1  0  0  0  0
 56 51  1  0  0  0  0
 57 52  1  0  0  0  0
 60 61  1  0  0  0  0
 60 63  1  0  0  0  0
 62 60  1  0  0  0  0
M  END
>  <MODEL>
7

>  <REMARK>
 VINA RESULT:    -7.410      1.956      3.065
 INTER + INTRA:         -11.732
 INTER:                 -11.810
 INTRA:                   0.078
 UNBOUND:                -0.856
  Name = 
  9 active torsions:
  status: ('A' for Active; 'I' for Inactive)
    1  A    between atoms: C_1  and  C_2
    2  A    between atoms: C_5  and  C_6
    3  A    between atoms: C_6  and  N_7
    4  A    between atoms: N_7  and  C_8
    5  A    between atoms: N_7  and  C_9
    6  A    between atoms: C_12  and  C_13
    7  A    between atoms: C_13  and  N_14
    8  A    between atoms: N_17  and  C_18
    9  A    between atoms: C_27  and  C_28
                            x       y       z     vdW  Elec       q    Type
                         _______ _______ _______ _____ _____    ______ ____

>  <TORSDO>
F 9

$$$$
=
 OpenBabel07192307433D

 63 66  0  0  1  0  0  0  0  0999 V2000
    2.3010    5.6880   19.2500 C   0  0  0  0  0  0  0  0  0  0  0  0
    2.5190    6.3990   18.0620 C   0  0  0  0  0  0  0  0  0  0  0  0
    2.2960    7.7780   17.9730 C   0  0  0  0  0  0  0  0  0  0  0  0
    1.8350    8.5080   19.0760 C   0  0  0  0  0  0  0  0  0  0  0  0
    1.5780    7.8110   20.2690 C   0  0  0  0  0  0  0  0  0  0  0  0
    1.8210    6.4240   20.3440 C   0  0  0  0  0  0  0  0  0  0  0  0
    2.8370    5.8770   17.1620 H   0  0  0  0  0  0  0  0  0  0  0  0
    2.4590    8.2730   17.0170 H   0  0  0  0  0  0  0  0  0  0  0  0
    1.6690    5.9270   21.2980 H   0  0  0  0  0  0  0  0  0  0  0  0
    1.0480    8.5100   21.4750 C   0  0  0  0  0  0  0  0  0  0  0  0
    1.9740    8.9950   22.3560 N   0  0  0  0  0  0  0  0  0  0  0  0
   -0.1470    8.6310   21.7040 O   0  0  0  0  0  0  0  0  0  0  0  0
    2.9510    8.7380   22.3130 H   0  0  0  0  0  0  0  0  0  0  0  0
    1.6210    9.4070   23.2090 H   0  0  0  0  0  0  0  0  0  0  0  0
    1.5820    9.9860   18.9140 C   0  0  0  0  0  0  0  0  0  0  0  0
    2.4120   10.5710   19.3220 H   0  0  0  0  0  0  0  0  0  0  0  0
    1.5160   10.2580   17.8530 H   0  0  0  0  0  0  0  0  0  0  0  0
    0.3620   10.3820   19.5790 N   0  0  0  0  0  0  0  0  0  0  0  0
    0.2640   11.5760   20.2340 C   0  0  0  0  0  0  0  0  0  0  0  0
    1.1690   12.3950   20.3200 O   0  0  0  0  0  0  0  0  0  0  0  0
   -0.9910   11.7470   20.7580 N   0  0  0  0  0  0  0  0  0  0  0  0
   -0.2390    9.6320   19.8950 H   0  0  0  0  0  0  0  0  0  0  0  0
   -1.7080   11.2930   20.2180 H   0  0  0  0  0  0  0  0  0  0  0  0
   -1.3370   13.0250   21.3410 C   0  0  2  0  0  0  0  0  0  0  0  0
   -0.5220   13.3300   22.6170 C   0  0  0  0  0  0  0  0  0  0  0  0
   -1.4000   14.2450   23.4770 C   0  0  0  0  0  0  0  0  0  0  0  0
   -2.7710   13.7820   23.0960 C   0  0  0  0  0  0  0  0  0  0  0  0
   -3.9620   14.0310   23.7550 C   0  0  0  0  0  0  0  0  0  0  0  0
   -5.1470   13.5550   23.1890 C   0  0  0  0  0  0  0  0  0  0  0  0
   -5.1250   12.8580   21.9720 C   0  0  0  0  0  0  0  0  0  0  0  0
   -3.9200   12.6240   21.3040 C   0  0  0  0  0  0  0  0  0  0  0  0
   -2.7430   13.0820   21.8810 C   0  0  0  0  0  0  0  0  0  0  0  0
   -1.2040   13.8190   20.5940 H   0  0  0  0  0  0  0  0  0  0  0  0
    0.4500   13.7830   22.3940 H   0  0  0  0  0  0  0  0  0  0  0  0
   -0.3220   12.4020   23.1690 H   0  0  0  0  0  0  0  0  0  0  0  0
   -1.2660   15.2950   23.1970 H   0  0  0  0  0  0  0  0  0  0  0  0
   -1.1960   14.1140   24.5420 H   0  0  0  0  0  0  0  0  0  0  0  0
   -3.9810   14.5860   24.6890 H   0  0  0  0  0  0  0  0  0  0  0  0
   -6.0940   13.7390   23.6900 H   0  0  0  0  0  0  0  0  0  0  0  0
   -6.0590   12.5070   21.5390 H   0  0  0  0  0  0  0  0  0  0  0  0
   -3.9190   12.1080   20.3500 H   0  0  0  0  0  0  0  0  0  0  0  0
    2.5300    4.3100   19.3040 N   0  0  0  0  0  0  0  0  0  0  0  0
    1.4950    3.4410   19.8590 C   0  0  0  0  0  0  0  0  0  0  0  0
    0.8310    3.0720   19.0700 H   0  0  0  0  0  0  0  0  0  0  0  0
    0.8990    3.9550   20.6230 H   0  0  0  0  0  0  0  0  0  0  0  0
    1.9510    2.5570   20.3270 H   0  0  0  0  0  0  0  0  0  0  0  0
    3.9210    3.8620   19.5060 C   0  0  0  0  0  0  0  0  0  0  0  0
    4.3530    4.4150   20.3500 H   0  0  0  0  0  0  0  0  0  0  0  0
    3.9830    2.8120   19.8130 H   0  0  0  0  0  0  0  0  0  0  0  0
    6.3670    4.5450   15.9930 C   0  0  0  0  0  0  0  0  0  0  0  0
    5.1520    3.8610   15.8890 C   0  0  0  0  0  0  0  0  0  0  0  0
    4.3650    3.6380   17.0220 C   0  0  0  0  0  0  0  0  0  0  0  0
    4.7860    4.0820   18.2820 C   0  0  0  0  0  0  0  0  0  0  0  0
    6.0130    4.7520   18.3840 C   0  0  0  0  0  0  0  0  0  0  0  0
    6.7980    4.9780   17.2510 C   0  0  0  0  0  0  0  0  0  0  0  0
    4.8030    3.5020   14.9230 H   0  0  0  0  0  0  0  0  0  0  0  0
    3.4160    3.1170   16.9140 H   0  0  0  0  0  0  0  0  0  0  0  0
    6.3670    5.1060   19.3510 H   0  0  0  0  0  0  0  0  0  0  0  0
    7.7440    5.5000   17.3560 H   0  0  0  0  0  0  0  0  0  0  0  0
    7.2190    4.7640   14.7780 C   0  0  0  0  0  0  0  0  0  0  0  0
    7.7200    3.8320   14.5000 H   0  0  0  0  0  0  0  0  0  0  0  0
    7.9780    5.5310   14.9630 H   0  0  0  0  0  0  0  0  0  0  0  0
    6.6100    5.1060   13.9340 H   0  0  0  0  0  0  0  0  0  0  0  0
  1 42  1  0  0  0  0
  1  6  1  0  0  0  0
  2  1  2  0  0  0  0
  3  2  1  0  0  0  0
  3  4  2  0  0  0  0
  4  5  1  0  0  0  0
  5  6  2  0  0  0  0
  5 10  1  0  0  0  0
  6  9  1  0  0  0  0
  7  2  1  0  0  0  0
  8  3  1  0  0  0  0
 10 12  2  0  0  0  0
 10 11  1  0  0  0  0
 11 14  1  0  0  0  0
 13 11  1  0  0  0  0
 15  4  1  0  0  0  0
 15 16  1  0  0  0  0
 15 18  1  0  0  0  0
 17 15  1  0  0  0  0
 18 22  1  0  0  0  0
 18 19  1  0  0  0  0
 19 20  2  0  0  0  0
 19 21  1  0  0  0  0
 21 24  1  0  0  0  0
 23 21  1  0  0  0  0
 24 33  1  6  0  0  0
 24 32  1  0  0  0  0
 24 25  1  0  0  0  0
 25 35  1  0  0  0  0
 25 26  1  0  0  0  0
 26 37  1  0  0  0  0
 27 26  1  0  0  0  0
 27 28  1  0  0  0  0
 28 38  1  0  0  0  0
 29 39  1  0  0  0  0
 29 28  2  0  0  0  0
 30 29  1  0  0  0  0
 31 32  1  0  0  0  0
 31 30  2  0  0  0  0
 32 27  2  0  0  0  0
 34 25  1  0  0  0  0
 36 26  1  0  0  0  0
 40 30  1  0  0  0  0
 41 31  1  0  0  0  0
 42 47  1  0  0  0  0
 42 43  1  0  0  0  0
 43 46  1  0  0  0  0
 43 45  1  0  0  0  0
 44 43  1  0  0  0  0
 47 49  1  0  0  0  0
 47 48  1  0  0  0  0
 50 55  1  0  0  0  0
 51 50  2  0  0  0  0
 51 52  1  0  0  0  0
 52 53  2  0  0  0  0
 53 54  1  0  0  0  0
 53 47  1  0  0  0  0
 54 58  1  0  0  0  0
 55 59  1  0  0  0  0
 55 54  2  0  0  0  0
 56 51  1  0  0  0  0
 57 52  1  0  0  0  0
 60 62  1  0  0  0  0
 60 50  1  0  0  0  0
 61 60  1  0  0  0  0
 63 60  1  0  0  0  0
M  END
>  <MODEL>
8

>  <REMARK>
 VINA RESULT:    -7.358      2.444      3.641
 INTER + INTRA:         -11.655
 INTER:                 -11.446
 INTRA:                  -0.209
 UNBOUND:                -0.856
  Name = 
  9 active torsions:
  status: ('A' for Active; 'I' for Inactive)
    1  A    between atoms: C_1  and  C_2
    2  A    between atoms: C_5  and  C_6
    3  A    between atoms: C_6  and  N_7
    4  A    between atoms: N_7  and  C_8
    5  A    between atoms: N_7  and  C_9
    6  A    between atoms: C_12  and  C_13
    7  A    between atoms: C_13  and  N_14
    8  A    between atoms: N_17  and  C_18
    9  A    between atoms: C_27  and  C_28
                            x       y       z     vdW  Elec       q    Type
                         _______ _______ _______ _____ _____    ______ ____

>  <TORSDO>
F 9

$$$$
=
 OpenBabel07192307433D

 63 66  0  0  1  0  0  0  0  0999 V2000
    0.0900   12.8270   19.7460 C   0  0  0  0  0  0  0  0  0  0  0  0
    1.2370   12.0340   19.8870 C   0  0  0  0  0  0  0  0  0  0  0  0
    1.3690   10.8010   19.2370 C   0  0  0  0  0  0  0  0  0  0  0  0
    0.3480   10.3020   18.4190 C   0  0  0  0  0  0  0  0  0  0  0  0
   -0.8260   11.0650   18.2890 C   0  0  0  0  0  0  0  0  0  0  0  0
   -0.9360   12.3100   18.9410 C   0  0  0  0  0  0  0  0  0  0  0  0
    2.0450   12.3510   20.5430 H   0  0  0  0  0  0  0  0  0  0  0  0
    2.2730   10.2160   19.4030 H   0  0  0  0  0  0  0  0  0  0  0  0
   -1.8310   12.9010   18.7710 H   0  0  0  0  0  0  0  0  0  0  0  0
   -1.9750   10.5840   17.4690 C   0  0  0  0  0  0  0  0  0  0  0  0
   -2.1910   11.2300   16.2830 N   0  0  0  0  0  0  0  0  0  0  0  0
   -2.7180    9.6810   17.8270 O   0  0  0  0  0  0  0  0  0  0  0  0
   -1.7380   12.1030   16.0510 H   0  0  0  0  0  0  0  0  0  0  0  0
   -3.0100   10.9550   15.7570 H   0  0  0  0  0  0  0  0  0  0  0  0
    0.5310    8.9540   17.7690 C   0  0  0  0  0  0  0  0  0  0  0  0
   -0.0180    8.1800   18.3160 H   0  0  0  0  0  0  0  0  0  0  0  0
    0.1210    8.9500   16.7510 H   0  0  0  0  0  0  0  0  0  0  0  0
    1.9270    8.5850   17.7170 N   0  0  0  0  0  0  0  0  0  0  0  0
    2.3450    7.3300   18.0530 C   0  0  0  0  0  0  0  0  0  0  0  0
    1.6040    6.4290   18.4210 O   0  0  0  0  0  0  0  0  0  0  0  0
    3.7010    7.2050   17.8960 N   0  0  0  0  0  0  0  0  0  0  0  0
    2.5930    9.3390   17.8290 H   0  0  0  0  0  0  0  0  0  0  0  0
    4.0680    7.7880   17.1620 H   0  0  0  0  0  0  0  0  0  0  0  0
    4.3040    5.8990   18.0400 C   0  0  2  0  0  0  0  0  0  0  0  0
    5.2600    5.8210   19.2500 C   0  0  0  0  0  0  0  0  0  0  0  0
    6.3040    4.7540   18.9040 C   0  0  0  0  0  0  0  0  0  0  0  0
    6.3750    4.8820   17.4150 C   0  0  0  0  0  0  0  0  0  0  0  0
    7.3510    4.3870   16.5680 C   0  0  0  0  0  0  0  0  0  0  0  0
    7.1890    4.5650   15.1920 C   0  0  0  0  0  0  0  0  0  0  0  0
    6.0540    5.2150   14.6860 C   0  0  0  0  0  0  0  0  0  0  0  0
    5.0660    5.6990   15.5460 C   0  0  0  0  0  0  0  0  0  0  0  0
    5.2390    5.5380   16.9140 C   0  0  0  0  0  0  0  0  0  0  0  0
    3.5180    5.1360   18.1150 H   0  0  0  0  0  0  0  0  0  0  0  0
    4.7350    5.5960   20.1850 H   0  0  0  0  0  0  0  0  0  0  0  0
    5.7660    6.7860   19.3940 H   0  0  0  0  0  0  0  0  0  0  0  0
    5.9510    3.7550   19.1800 H   0  0  0  0  0  0  0  0  0  0  0  0
    7.2630    4.9570   19.3870 H   0  0  0  0  0  0  0  0  0  0  0  0
    8.2210    3.8670   16.9590 H   0  0  0  0  0  0  0  0  0  0  0  0
    7.9440    4.1830   14.5090 H   0  0  0  0  0  0  0  0  0  0  0  0
    5.9390    5.3320   13.6110 H   0  0  0  0  0  0  0  0  0  0  0  0
    4.1790    6.1760   15.1420 H   0  0  0  0  0  0  0  0  0  0  0  0
   -0.0110   14.0510   20.4120 N   0  0  0  0  0  0  0  0  0  0  0  0
    0.4340   15.2670   19.7330 C   0  0  0  0  0  0  0  0  0  0  0  0
    0.6690   15.0630   18.6830 H   0  0  0  0  0  0  0  0  0  0  0  0
    1.3130   15.7060   20.2210 H   0  0  0  0  0  0  0  0  0  0  0  0
   -0.3650   16.0200   19.7380 H   0  0  0  0  0  0  0  0  0  0  0  0
    0.1500   14.0410   21.8780 C   0  0  0  0  0  0  0  0  0  0  0  0
    0.9680   13.3570   22.1410 H   0  0  0  0  0  0  0  0  0  0  0  0
    0.4740   15.0100   22.2730 H   0  0  0  0  0  0  0  0  0  0  0  0
   -3.4160   12.7670   23.9890 C   0  0  0  0  0  0  0  0  0  0  0  0
   -2.5500   11.8240   23.4260 C   0  0  0  0  0  0  0  0  0  0  0  0
   -1.4020   12.2350   22.7430 C   0  0  0  0  0  0  0  0  0  0  0  0
   -1.1070   13.5970   22.5980 C   0  0  0  0  0  0  0  0  0  0  0  0
   -1.9880   14.5390   23.1480 C   0  0  0  0  0  0  0  0  0  0  0  0
   -3.1330   14.1270   23.8330 C   0  0  0  0  0  0  0  0  0  0  0  0
   -2.7570   10.7610   23.5220 H   0  0  0  0  0  0  0  0  0  0  0  0
   -0.7350   11.4830   22.3280 H   0  0  0  0  0  0  0  0  0  0  0  0
   -1.7860   15.6040   23.0480 H   0  0  0  0  0  0  0  0  0  0  0  0
   -3.7990   14.8770   24.2520 H   0  0  0  0  0  0  0  0  0  0  0  0
   -4.6580   12.3230   24.7030 C   0  0  0  0  0  0  0  0  0  0  0  0
   -4.6090   11.2480   24.9040 H   0  0  0  0  0  0  0  0  0  0  0  0
   -5.5510   12.5290   24.1040 H   0  0  0  0  0  0  0  0  0  0  0  0
   -4.7720   12.8570   25.6520 H   0  0  0  0  0  0  0  0  0  0  0  0
  1  2  1  0  0  0  0
  1 42  1  0  0  0  0
  2  7  1  0  0  0  0
  3  8  1  0  0  0  0
  3  2  2  0  0  0  0
  4  3  1  0  0  0  0
  5  4  2  0  0  0  0
  5  6  1  0  0  0  0
  6  1  2  0  0  0  0
  9  6  1  0  0  0  0
 10 12  2  0  0  0  0
 10  5  1  0  0  0  0
 11 10  1  0  0  0  0
 13 11  1  0  0  0  0
 14 11  1  0  0  0  0
 15 16  1  0  0  0  0
 15  4  1  0  0  0  0
 17 15  1  0  0  0  0
 18 15  1  0  0  0  0
 18 22  1  0  0  0  0
 18 19  1  0  0  0  0
 19 20  2  0  0  0  0
 21 24  1  0  0  0  0
 21 19  1  0  0  0  0
 23 21  1  0  0  0  0
 24 33  1  1  0  0  0
 24 25  1  0  0  0  0
 25 35  1  0  0  0  0
 25 34  1  0  0  0  0
 26 36  1  0  0  0  0
 26 25  1  0  0  0  0
 26 37  1  0  0  0  0
 27 26  1  0  0  0  0
 28 38  1  0  0  0  0
 28 27  2  0  0  0  0
 29 28  1  0  0  0  0
 30 29  2  0  0  0  0
 30 31  1  0  0  0  0
 31 32  2  0  0  0  0
 32 27  1  0  0  0  0
 32 24  1  0  0  0  0
 39 29  1  0  0  0  0
 40 30  1  0  0  0  0
 41 31  1  0  0  0  0
 42 47  1  0  0  0  0
 43 46  1  0  0  0  0
 43 45  1  0  0  0  0
 43 42  1  0  0  0  0
 44 43  1  0  0  0  0
 47 48  1  0  0  0  0
 47 49  1  0  0  0  0
 47 53  1  0  0  0  0
 50 60  1  0  0  0  0
 51 56  1  0  0  0  0
 51 50  2  0  0  0  0
 52 51  1  0  0  0  0
 53 52  2  0  0  0  0
 53 54  1  0  0  0  0
 54 55  2  0  0  0  0
 55 50  1  0  0  0  0
 55 59  1  0  0  0  0
 57 52  1  0  0  0  0
 58 54  1  0  0  0  0
 60 61  1  0  0  0  0
 60 63  1  0  0  0  0
 62 60  1  0  0  0  0
M  END
>  <MODEL>
9

>  <REMARK>
 VINA RESULT:    -7.317      2.699      9.925
 INTER + INTRA:         -11.595
 INTER:                 -10.456
 INTRA:                  -1.139
 UNBOUND:                -0.856
  Name = 
  9 active torsions:
  status: ('A' for Active; 'I' for Inactive)
    1  A    between atoms: C_1  and  C_2
    2  A    between atoms: C_5  and  C_6
    3  A    between atoms: C_6  and  N_7
    4  A    between atoms: N_7  and  C_8
    5  A    between atoms: N_7  and  C_9
    6  A    between atoms: C_12  and  C_13
    7  A    between atoms: C_13  and  N_14
    8  A    between atoms: N_17  and  C_18
    9  A    between atoms: C_27  and  C_28
                            x       y       z     vdW  Elec       q    Type
                         _______ _______ _______ _____ _____    ______ ____

>  <TORSDO>
F 9

$$$$
=
 OpenBabel07192307433D

 63 66  0  0  1  0  0  0  0  0999 V2000
   -2.1360   11.2760   18.6460 C   0  0  0  0  0  0  0  0  0  0  0  0
   -2.0670    9.9850   18.1040 C   0  0  0  0  0  0  0  0  0  0  0  0
   -0.8430    9.3600   17.8360 C   0  0  0  0  0  0  0  0  0  0  0  0
    0.3720   10.0070   18.0960 C   0  0  0  0  0  0  0  0  0  0  0  0
    0.3260   11.3140   18.6100 C   0  0  0  0  0  0  0  0  0  0  0  0
   -0.9150   11.9240   18.8850 C   0  0  0  0  0  0  0  0  0  0  0  0
   -2.9780    9.4510   17.8430 H   0  0  0  0  0  0  0  0  0  0  0  0
   -0.8500    8.3660   17.3910 H   0  0  0  0  0  0  0  0  0  0  0  0
   -0.9130   12.9110   19.3370 H   0  0  0  0  0  0  0  0  0  0  0  0
    1.5750   12.0860   18.8750 C   0  0  0  0  0  0  0  0  0  0  0  0
    2.2990   12.4710   17.7810 N   0  0  0  0  0  0  0  0  0  0  0  0
    1.9690   12.3490   20.0020 O   0  0  0  0  0  0  0  0  0  0  0  0
    2.1240   12.1010   16.8570 H   0  0  0  0  0  0  0  0  0  0  0  0
    3.1810   12.9320   17.9570 H   0  0  0  0  0  0  0  0  0  0  0  0
    1.6590    9.2980   17.7590 C   0  0  0  0  0  0  0  0  0  0  0  0
    1.5260    8.6380   16.8950 H   0  0  0  0  0  0  0  0  0  0  0  0
    2.4380   10.0150   17.4710 H   0  0  0  0  0  0  0  0  0  0  0  0
    2.1300    8.5120   18.8760 N   0  0  0  0  0  0  0  0  0  0  0  0
    2.5110    7.2110   18.7210 C   0  0  0  0  0  0  0  0  0  0  0  0
    2.4870    6.6040   17.6590 O   0  0  0  0  0  0  0  0  0  0  0  0
    2.9500    6.6820   19.9080 N   0  0  0  0  0  0  0  0  0  0  0  0
    1.7970    8.7900   19.7900 H   0  0  0  0  0  0  0  0  0  0  0  0
    3.3710    7.3680   20.5120 H   0  0  0  0  0  0  0  0  0  0  0  0
    3.5530    5.3680   19.9070 C   0  0  2  0  0  0  0  0  0  0  0  0
    4.6450    5.2220   18.8260 C   0  0  0  0  0  0  0  0  0  0  0  0
    4.6810    3.7370   18.4500 C   0  0  0  0  0  0  0  0  0  0  0  0
    3.2550    3.3410   18.6770 C   0  0  0  0  0  0  0  0  0  0  0  0
    2.6130    2.1990   18.2310 C   0  0  0  0  0  0  0  0  0  0  0  0
    1.2860    1.9920   18.6130 C   0  0  0  0  0  0  0  0  0  0  0  0
    0.6310    2.9130   19.4430 C   0  0  0  0  0  0  0  0  0  0  0  0
    1.2910    4.0560   19.9010 C   0  0  0  0  0  0  0  0  0  0  0  0
    2.6040    4.2680   19.5040 C   0  0  0  0  0  0  0  0  0  0  0  0
    3.9580    5.1480   20.9040 H   0  0  0  0  0  0  0  0  0  0  0  0
    5.6220    5.5840   19.1660 H   0  0  0  0  0  0  0  0  0  0  0  0
    4.3790    5.8110   17.9370 H   0  0  0  0  0  0  0  0  0  0  0  0
    5.3380    3.1770   19.1230 H   0  0  0  0  0  0  0  0  0  0  0  0
    4.9950    3.5900   17.4140 H   0  0  0  0  0  0  0  0  0  0  0  0
    3.1260    1.4760   17.6030 H   0  0  0  0  0  0  0  0  0  0  0  0
    0.7620    1.1010   18.2740 H   0  0  0  0  0  0  0  0  0  0  0  0
   -0.3990    2.7280   19.7410 H   0  0  0  0  0  0  0  0  0  0  0  0
    0.7820    4.7480   20.5660 H   0  0  0  0  0  0  0  0  0  0  0  0
   -3.3750   11.8730   18.8980 N   0  0  0  0  0  0  0  0  0  0  0  0
   -4.4610   11.6820   17.9390 C   0  0  0  0  0  0  0  0  0  0  0  0
   -4.5040   12.5140   17.2270 H   0  0  0  0  0  0  0  0  0  0  0  0
   -5.4320   11.5840   18.4390 H   0  0  0  0  0  0  0  0  0  0  0  0
   -4.2930   10.7700   17.3500 H   0  0  0  0  0  0  0  0  0  0  0  0
   -3.3730   13.1600   19.6160 C   0  0  0  0  0  0  0  0  0  0  0  0
   -2.3960   13.6430   19.4790 H   0  0  0  0  0  0  0  0  0  0  0  0
   -4.0870   13.8770   19.1970 H   0  0  0  0  0  0  0  0  0  0  0  0
   -4.1370   12.6380   23.8520 C   0  0  0  0  0  0  0  0  0  0  0  0
   -5.1470   13.0960   23.0000 C   0  0  0  0  0  0  0  0  0  0  0  0
   -4.9000   13.2670   21.6360 C   0  0  0  0  0  0  0  0  0  0  0  0
   -3.6330   12.9980   21.1000 C   0  0  0  0  0  0  0  0  0  0  0  0
   -2.6180   12.5560   21.9610 C   0  0  0  0  0  0  0  0  0  0  0  0
   -2.8680   12.3820   23.3240 C   0  0  0  0  0  0  0  0  0  0  0  0
   -6.1380   13.3160   23.3900 H   0  0  0  0  0  0  0  0  0  0  0  0
   -5.7050   13.6090   20.9900 H   0  0  0  0  0  0  0  0  0  0  0  0
   -1.6240   12.3420   21.5740 H   0  0  0  0  0  0  0  0  0  0  0  0
   -2.0650   12.0380   23.9710 H   0  0  0  0  0  0  0  0  0  0  0  0
   -4.4000   12.4760   25.3200 C   0  0  0  0  0  0  0  0  0  0  0  0
   -3.6480   13.0240   25.8970 H   0  0  0  0  0  0  0  0  0  0  0  0
   -4.3670   11.4210   25.6100 H   0  0  0  0  0  0  0  0  0  0  0  0
   -5.3940   12.8550   25.5800 H   0  0  0  0  0  0  0  0  0  0  0  0
  1  6  1  0  0  0  0
  1 42  1  0  0  0  0
  2  1  2  0  0  0  0
  3  4  2  0  0  0  0
  3  2  1  0  0  0  0
  4  5  1  0  0  0  0
  5 10  1  0  0  0  0
  5  6  2  0  0  0  0
  6  9  1  0  0  0  0
  7  2  1  0  0  0  0
  8  3  1  0  0  0  0
 10 12  2  0  0  0  0
 11 14  1  0  0  0  0
 11 10  1  0  0  0  0
 13 11  1  0  0  0  0
 15  4  1  0  0  0  0
 15 18  1  0  0  0  0
 16 15  1  0  0  0  0
 17 15  1  0  0  0  0
 18 22  1  0  0  0  0
 19 18  1  0  0  0  0
 19 21  1  0  0  0  0
 20 19  2  0  0  0  0
 21 23  1  0  0  0  0
 24 21  1  0  0  0  0
 24 33  1  1  0  0  0
 25 34  1  0  0  0  0
 25 24  1  0  0  0  0
 26 27  1  0  0  0  0
 26 25  1  0  0  0  0
 26 36  1  0  0  0  0
 27 32  1  0  0  0  0
 28 29  1  0  0  0  0
 28 27  2  0  0  0  0
 29 30  2  0  0  0  0
 30 40  1  0  0  0  0
 30 31  1  0  0  0  0
 31 41  1  0  0  0  0
 32 31  2  0  0  0  0
 32 24  1  0  0  0  0
 35 25  1  0  0  0  0
 37 26  1  0  0  0  0
 38 28  1  0  0  0  0
 39 29  1  0  0  0  0
 42 47  1  0  0  0  0
 43 45  1  0  0  0  0
 43 42  1  0  0  0  0
 44 43  1  0  0  0  0
 46 43  1  0  0  0  0
 47 53  1  0  0  0  0
 48 47  1  0  0  0  0
 49 47  1  0  0  0  0
 50 60  1  0  0  0  0
 51 56  1  0  0  0  0
 51 50  2  0  0  0  0
 52 51  1  0  0  0  0
 53 52  2  0  0  0  0
 53 54  1  0  0  0  0
 54 55  2  0  0  0  0
 55 50  1  0  0  0  0
 55 59  1  0  0  0  0
 57 52  1  0  0  0  0
 58 54  1  0  0  0  0
 60 63  1  0  0  0  0
 60 62  1  0  0  0  0
 60 61  1  0  0  0  0
M  END
>  <MODEL>
10

>  <REMARK>
 VINA RESULT:    -7.274      2.183      9.458
 INTER + INTRA:         -11.532
 INTER:                 -11.294
 INTRA:                  -0.238
 UNBOUND:                -0.856
  Name = 
  9 active torsions:
  status: ('A' for Active; 'I' for Inactive)
    1  A    between atoms: C_1  and  C_2
    2  A    between atoms: C_5  and  C_6
    3  A    between atoms: C_6  and  N_7
    4  A    between atoms: N_7  and  C_8
    5  A    between atoms: N_7  and  C_9
    6  A    between atoms: C_12  and  C_13
    7  A    between atoms: C_13  and  N_14
    8  A    between atoms: N_17  and  C_18
    9  A    between atoms: C_27  and  C_28
                            x       y       z     vdW  Elec       q    Type
                         _______ _______ _______ _____ _____    ______ ____

>  <TORSDO>
F 9

$$$$
=
 OpenBabel07192307433D

 63 66  0  0  1  0  0  0  0  0999 V2000
    5.5150    5.9170   17.8180 C   0  0  0  0  0  0  0  0  0  0  0  0
    5.1490    7.0880   17.1410 C   0  0  0  0  0  0  0  0  0  0  0  0
    3.8900    7.6760   17.3080 C   0  0  0  0  0  0  0  0  0  0  0  0
    2.9340    7.1090   18.1600 C   0  0  0  0  0  0  0  0  0  0  0  0
    3.2670    5.9150   18.8240 C   0  0  0  0  0  0  0  0  0  0  0  0
    4.5450    5.3440   18.6540 C   0  0  0  0  0  0  0  0  0  0  0  0
    5.8350    7.5500   16.4350 H   0  0  0  0  0  0  0  0  0  0  0  0
    3.6510    8.5730   16.7370 H   0  0  0  0  0  0  0  0  0  0  0  0
    4.7910    4.4550   19.2280 H   0  0  0  0  0  0  0  0  0  0  0  0
    2.2910    5.2270   19.7170 C   0  0  0  0  0  0  0  0  0  0  0  0
    2.3370    5.5580   21.0430 N   0  0  0  0  0  0  0  0  0  0  0  0
    1.4980    4.3870   19.3160 O   0  0  0  0  0  0  0  0  0  0  0  0
    3.1030    6.0820   21.4450 H   0  0  0  0  0  0  0  0  0  0  0  0
    1.7270    5.0440   21.6630 H   0  0  0  0  0  0  0  0  0  0  0  0
    1.5830    7.7670   18.2770 C   0  0  0  0  0  0  0  0  0  0  0  0
    1.1050    7.8530   17.2970 H   0  0  0  0  0  0  0  0  0  0  0  0
    0.9030    7.1620   18.8910 H   0  0  0  0  0  0  0  0  0  0  0  0
    1.6930    9.0860   18.8580 N   0  0  0  0  0  0  0  0  0  0  0  0
    0.7070   10.0160   18.7050 C   0  0  0  0  0  0  0  0  0  0  0  0
   -0.3290    9.8310   18.0810 O   0  0  0  0  0  0  0  0  0  0  0  0
    1.0170   11.1760   19.3670 N   0  0  0  0  0  0  0  0  0  0  0  0
    2.6330    9.4300   19.0100 H   0  0  0  0  0  0  0  0  0  0  0  0
    1.5820   11.0220   20.1860 H   0  0  0  0  0  0  0  0  0  0  0  0
    0.0170   12.2160   19.4610 C   0  0  2  0  0  0  0  0  0  0  0  0
    0.5920   13.6160   19.1540 C   0  0  0  0  0  0  0  0  0  0  0  0
   -0.2690   14.6140   19.9350 C   0  0  0  0  0  0  0  0  0  0  0  0
   -0.6710   13.7940   21.1200 C   0  0  0  0  0  0  0  0  0  0  0  0
   -1.2080   14.2390   22.3150 C   0  0  0  0  0  0  0  0  0  0  0  0
   -1.5750   13.2910   23.2720 C   0  0  0  0  0  0  0  0  0  0  0  0
   -1.4180   11.9210   23.0160 C   0  0  0  0  0  0  0  0  0  0  0  0
   -0.8890   11.4780   21.8010 C   0  0  0  0  0  0  0  0  0  0  0  0
   -0.5070   12.4250   20.8590 C   0  0  0  0  0  0  0  0  0  0  0  0
   -0.8210   11.9830   18.7920 H   0  0  0  0  0  0  0  0  0  0  0  0
    0.6070   13.8360   18.0800 H   0  0  0  0  0  0  0  0  0  0  0  0
    1.6310   13.6840   19.5070 H   0  0  0  0  0  0  0  0  0  0  0  0
   -1.1540   14.9040   19.3590 H   0  0  0  0  0  0  0  0  0  0  0  0
    0.3000   15.5040   20.2160 H   0  0  0  0  0  0  0  0  0  0  0  0
   -1.3470   15.2990   22.5060 H   0  0  0  0  0  0  0  0  0  0  0  0
   -2.0000   13.6190   24.2180 H   0  0  0  0  0  0  0  0  0  0  0  0
   -1.7230   11.1970   23.7680 H   0  0  0  0  0  0  0  0  0  0  0  0
   -0.7980   10.4150   21.6030 H   0  0  0  0  0  0  0  0  0  0  0  0
    6.7800    5.3530   17.6250 N   0  0  0  0  0  0  0  0  0  0  0  0
    7.6300    5.1050   18.7880 C   0  0  0  0  0  0  0  0  0  0  0  0
    7.0390    4.7280   19.6300 H   0  0  0  0  0  0  0  0  0  0  0  0
    8.1670    6.0090   19.0990 H   0  0  0  0  0  0  0  0  0  0  0  0
    8.3770    4.3340   18.5550 H   0  0  0  0  0  0  0  0  0  0  0  0
    7.4860    5.6850   16.3740 C   0  0  0  0  0  0  0  0  0  0  0  0
    7.3890    6.7630   16.1860 H   0  0  0  0  0  0  0  0  0  0  0  0
    8.5670    5.5220   16.4450 H   0  0  0  0  0  0  0  0  0  0  0  0
    5.8790    3.5670   12.9490 C   0  0  0  0  0  0  0  0  0  0  0  0
    5.3620    3.3420   14.2290 C   0  0  0  0  0  0  0  0  0  0  0  0
    5.8820    4.0230   15.3340 C   0  0  0  0  0  0  0  0  0  0  0  0
    6.9400    4.9300   15.1800 C   0  0  0  0  0  0  0  0  0  0  0  0
    7.4660    5.1390   13.8980 C   0  0  0  0  0  0  0  0  0  0  0  0
    6.9430    4.4600   12.7940 C   0  0  0  0  0  0  0  0  0  0  0  0
    4.5430    2.6420   14.3770 H   0  0  0  0  0  0  0  0  0  0  0  0
    5.4530    3.8440   16.3170 H   0  0  0  0  0  0  0  0  0  0  0  0
    8.2900    5.8350   13.7490 H   0  0  0  0  0  0  0  0  0  0  0  0
    7.3680    4.6400   11.8100 H   0  0  0  0  0  0  0  0  0  0  0  0
    5.3320    2.8190   11.7700 C   0  0  0  0  0  0  0  0  0  0  0  0
    5.8120    1.8380   11.6950 H   0  0  0  0  0  0  0  0  0  0  0  0
    5.5070    3.3700   10.8400 H   0  0  0  0  0  0  0  0  0  0  0  0
    4.2500    2.6800   11.8670 H   0  0  0  0  0  0  0  0  0  0  0  0
  1  6  1  0  0  0  0
  2  3  1  0  0  0  0
  2  1  2  0  0  0  0
  3  4  2  0  0  0  0
  4 15  1  0  0  0  0
  4  5  1  0  0  0  0
  5 10  1  0  0  0  0
  6  5  2  0  0  0  0
  6  9  1  0  0  0  0
  7  2  1  0  0  0  0
  8  3  1  0  0  0  0
 10 11  1  0  0  0  0
 11 13  1  0  0  0  0
 11 14  1  0  0  0  0
 12 10  2  0  0  0  0
 15 18  1  0  0  0  0
 15 17  1  0  0  0  0
 16 15  1  0  0  0  0
 18 22  1  0  0  0  0
 19 18  1  0  0  0  0
 19 21  1  0  0  0  0
 20 19  2  0  0  0  0
 21 24  1  0  0  0  0
 21 23  1  0  0  0  0
 24 33  1  6  0  0  0
 24 32  1  0  0  0  0
 25 24  1  0  0  0  0
 25 35  1  0  0  0  0
 25 26  1  0  0  0  0
 26 37  1  0  0  0  0
 26 27  1  0  0  0  0
 27 28  1  0  0  0  0
 28 38  1  0  0  0  0
 28 29  2  0  0  0  0
 29 39  1  0  0  0  0
 30 29  1  0  0  0  0
 30 40  1  0  0  0  0
 31 30  2  0  0  0  0
 32 27  2  0  0  0  0
 32 31  1  0  0  0  0
 34 25  1  0  0  0  0
 36 26  1  0  0  0  0
 41 31  1  0  0  0  0
 42  1  1  0  0  0  0
 42 43  1  0  0  0  0
 43 45  1  0  0  0  0
 43 44  1  0  0  0  0
 46 43  1  0  0  0  0
 47 49  1  0  0  0  0
 47 42  1  0  0  0  0
 48 47  1  0  0  0  0
 50 51  1  0  0  0  0
 51 56  1  0  0  0  0
 51 52  2  0  0  0  0
 52 57  1  0  0  0  0
 53 52  1  0  0  0  0
 53 47  1  0  0  0  0
 54 53  2  0  0  0  0
 55 50  2  0  0  0  0
 55 54  1  0  0  0  0
 58 54  1  0  0  0  0
 59 55  1  0  0  0  0
 60 63  1  0  0  0  0
 60 50  1  0  0  0  0
 61 60  1  0  0  0  0
 62 60  1  0  0  0  0
M  END
>  <MODEL>
11

>  <REMARK>
 VINA RESULT:    -7.248      2.757      4.598
 INTER + INTRA:         -11.494
 INTER:                 -10.648
 INTRA:                  -0.846
 UNBOUND:                -0.856
  Name = 
  9 active torsions:
  status: ('A' for Active; 'I' for Inactive)
    1  A    between atoms: C_1  and  C_2
    2  A    between atoms: C_5  and  C_6
    3  A    between atoms: C_6  and  N_7
    4  A    between atoms: N_7  and  C_8
    5  A    between atoms: N_7  and  C_9
    6  A    between atoms: C_12  and  C_13
    7  A    between atoms: C_13  and  N_14
    8  A    between atoms: N_17  and  C_18
    9  A    between atoms: C_27  and  C_28
                            x       y       z     vdW  Elec       q    Type
                         _______ _______ _______ _____ _____    ______ ____

>  <TORSDO>
F 9

$$$$
=
 OpenBabel07192307433D

 63 66  0  0  1  0  0  0  0  0999 V2000
    2.5820    6.9130   19.1860 C   0  0  0  0  0  0  0  0  0  0  0  0
    2.4700    7.7650   18.0790 C   0  0  0  0  0  0  0  0  0  0  0  0
    1.7480    8.9630   18.1370 C   0  0  0  0  0  0  0  0  0  0  0  0
    1.0980    9.3590   19.3140 C   0  0  0  0  0  0  0  0  0  0  0  0
    1.1700    8.5040   20.4270 C   0  0  0  0  0  0  0  0  0  0  0  0
    1.9110    7.3080   20.3540 C   0  0  0  0  0  0  0  0  0  0  0  0
    2.9180    7.4880   17.1270 H   0  0  0  0  0  0  0  0  0  0  0  0
    1.6740    9.5730   17.2380 H   0  0  0  0  0  0  0  0  0  0  0  0
    1.9970    6.7000   21.2500 H   0  0  0  0  0  0  0  0  0  0  0  0
    0.4720    8.8350   21.7030 C   0  0  0  0  0  0  0  0  0  0  0  0
   -0.7460    8.2460   21.9030 N   0  0  0  0  0  0  0  0  0  0  0  0
    0.9280    9.6100   22.5310 O   0  0  0  0  0  0  0  0  0  0  0  0
   -1.2470    7.7720   21.1640 H   0  0  0  0  0  0  0  0  0  0  0  0
   -1.2550    8.5200   22.7320 H   0  0  0  0  0  0  0  0  0  0  0  0
    0.3090   10.6440   19.3100 C   0  0  0  0  0  0  0  0  0  0  0  0
    0.1180   10.9810   18.2860 H   0  0  0  0  0  0  0  0  0  0  0  0
   -0.6780   10.4990   19.7680 H   0  0  0  0  0  0  0  0  0  0  0  0
    1.0100   11.6890   20.0210 N   0  0  0  0  0  0  0  0  0  0  0  0
    1.8340   12.5620   19.3720 C   0  0  0  0  0  0  0  0  0  0  0  0
    2.0530   12.5440   18.1680 O   0  0  0  0  0  0  0  0  0  0  0  0
    2.3600   13.4810   20.2430 N   0  0  0  0  0  0  0  0  0  0  0  0
    1.2020   11.5130   20.9990 H   0  0  0  0  0  0  0  0  0  0  0  0
    1.7490   13.6860   21.0150 H   0  0  0  0  0  0  0  0  0  0  0  0
    3.1220   14.5900   19.7130 C   0  0  2  0  0  0  0  0  0  0  0  0
    3.3840   14.4540   18.1980 C   0  0  0  0  0  0  0  0  0  0  0  0
    4.6920   15.2030   17.9200 C   0  0  0  0  0  0  0  0  0  0  0  0
    5.4200   15.0150   19.2140 C   0  0  0  0  0  0  0  0  0  0  0  0
    6.7670   15.2140   19.4640 C   0  0  0  0  0  0  0  0  0  0  0  0
    7.2320   15.0410   20.7690 C   0  0  0  0  0  0  0  0  0  0  0  0
    6.3480   14.6920   21.8010 C   0  0  0  0  0  0  0  0  0  0  0  0
    4.9870   14.5080   21.5430 C   0  0  0  0  0  0  0  0  0  0  0  0
    4.5320   14.6610   20.2410 C   0  0  0  0  0  0  0  0  0  0  0  0
    2.6050   15.5320   19.9360 H   0  0  0  0  0  0  0  0  0  0  0  0
    2.5540   14.8370   17.5930 H   0  0  0  0  0  0  0  0  0  0  0  0
    3.5120   13.3960   17.9290 H   0  0  0  0  0  0  0  0  0  0  0  0
    4.5060   16.2670   17.7440 H   0  0  0  0  0  0  0  0  0  0  0  0
    5.2300   14.7730   17.0710 H   0  0  0  0  0  0  0  0  0  0  0  0
    7.4480   15.5020   18.6680 H   0  0  0  0  0  0  0  0  0  0  0  0
    8.2860   15.1930   20.9880 H   0  0  0  0  0  0  0  0  0  0  0  0
    6.7270   14.5760   22.8140 H   0  0  0  0  0  0  0  0  0  0  0  0
    4.3090   14.2650   22.3550 H   0  0  0  0  0  0  0  0  0  0  0  0
    3.3070    5.7220   19.0930 N   0  0  0  0  0  0  0  0  0  0  0  0
    2.9210    4.5890   19.9310 C   0  0  0  0  0  0  0  0  0  0  0  0
    2.2350    3.9230   19.3960 H   0  0  0  0  0  0  0  0  0  0  0  0
    2.4500    4.9170   20.8660 H   0  0  0  0  0  0  0  0  0  0  0  0
    3.8040    3.9900   20.1910 H   0  0  0  0  0  0  0  0  0  0  0  0
    4.7440    5.8260   18.7790 C   0  0  0  0  0  0  0  0  0  0  0  0
    5.0500    6.8770   18.8560 H   0  0  0  0  0  0  0  0  0  0  0  0
    5.3730    5.3090   19.5120 H   0  0  0  0  0  0  0  0  0  0  0  0
    5.7450    4.3970   14.8090 C   0  0  0  0  0  0  0  0  0  0  0  0
    5.5190    5.7580   15.0370 C   0  0  0  0  0  0  0  0  0  0  0  0
    5.1930    6.2180   16.3160 C   0  0  0  0  0  0  0  0  0  0  0  0
    5.0730    5.3230   17.3880 C   0  0  0  0  0  0  0  0  0  0  0  0
    5.2830    3.9570   17.1510 C   0  0  0  0  0  0  0  0  0  0  0  0
    5.6120    3.4990   15.8720 C   0  0  0  0  0  0  0  0  0  0  0  0
    5.6020    6.4750   14.2230 H   0  0  0  0  0  0  0  0  0  0  0  0
    5.0380    7.2830   16.4730 H   0  0  0  0  0  0  0  0  0  0  0  0
    5.1940    3.2380   17.9630 H   0  0  0  0  0  0  0  0  0  0  0  0
    5.7710    2.4360   15.7140 H   0  0  0  0  0  0  0  0  0  0  0  0
    6.0730    3.9050   13.4310 C   0  0  0  0  0  0  0  0  0  0  0  0
    6.3780    4.7440   12.7980 H   0  0  0  0  0  0  0  0  0  0  0  0
    5.2080    3.4140   12.9730 H   0  0  0  0  0  0  0  0  0  0  0  0
    6.8850    3.1700   13.4640 H   0  0  0  0  0  0  0  0  0  0  0  0
  1  6  1  0  0  0  0
  2  3  1  0  0  0  0
  2  1  2  0  0  0  0
  3  4  2  0  0  0  0
  4  5  1  0  0  0  0
  5 10  1  0  0  0  0
  6  5  2  0  0  0  0
  6  9  1  0  0  0  0
  7  2  1  0  0  0  0
  8  3  1  0  0  0  0
 10 11  1  0  0  0  0
 10 12  2  0  0  0  0
 11 14  1  0  0  0  0
 13 11  1  0  0  0  0
 15  4  1  0  0  0  0
 15 17  1  0  0  0  0
 15 18  1  0  0  0  0
 16 15  1  0  0  0  0
 18 22  1  0  0  0  0
 19 18  1  0  0  0  0
 19 21  1  0  0  0  0
 20 19  2  0  0  0  0
 21 23  1  0  0  0  0
 24 33  1  1  0  0  0
 24 32  1  0  0  0  0
 24 21  1  0  0  0  0
 25 24  1  0  0  0  0
 26 25  1  0  0  0  0
 26 27  1  0  0  0  0
 27 28  2  0  0  0  0
 27 32  1  0  0  0  0
 28 29  1  0  0  0  0
 29 39  1  0  0  0  0
 29 30  2  0  0  0  0
 30 40  1  0  0  0  0
 31 30  1  0  0  0  0
 31 41  1  0  0  0  0
 32 31  2  0  0  0  0
 34 25  1  0  0  0  0
 35 25  1  0  0  0  0
 36 26  1  0  0  0  0
 37 26  1  0  0  0  0
 38 28  1  0  0  0  0
 42  1  1  0  0  0  0
 42 43  1  0  0  0  0
 43 46  1  0  0  0  0
 43 45  1  0  0  0  0
 44 43  1  0  0  0  0
 47 48  1  0  0  0  0
 47 42  1  0  0  0  0
 47 49  1  0  0  0  0
 50 51  2  0  0  0  0
 50 55  1  0  0  0  0
 51 52  1  0  0  0  0
 52 57  1  0  0  0  0
 52 53  2  0  0  0  0
 53 47  1  0  0  0  0
 54 53  1  0  0  0  0
 54 58  1  0  0  0  0
 55 54  2  0  0  0  0
 56 51  1  0  0  0  0
 59 55  1  0  0  0  0
 60 63  1  0  0  0  0
 60 50  1  0  0  0  0
 61 60  1  0  0  0  0
 62 60  1  0  0  0  0
M  END
>  <MODEL>
12

>  <REMARK>
 VINA RESULT:    -7.212      4.114      5.858
 INTER + INTRA:         -11.442
 INTER:                 -11.456
 INTRA:                   0.014
 UNBOUND:                -0.856
  Name = 
  9 active torsions:
  status: ('A' for Active; 'I' for Inactive)
    1  A    between atoms: C_1  and  C_2
    2  A    between atoms: C_5  and  C_6
    3  A    between atoms: C_6  and  N_7
    4  A    between atoms: N_7  and  C_8
    5  A    between atoms: N_7  and  C_9
    6  A    between atoms: C_12  and  C_13
    7  A    between atoms: C_13  and  N_14
    8  A    between atoms: N_17  and  C_18
    9  A    between atoms: C_27  and  C_28
                            x       y       z     vdW  Elec       q    Type
                         _______ _______ _______ _____ _____    ______ ____

>  <TORSDO>
F 9

$$$$
=
 OpenBabel07192307433D

 63 66  0  0  1  0  0  0  0  0999 V2000
    2.1230    4.4940   18.8780 C   0  0  0  0  0  0  0  0  0  0  0  0
    1.8890    4.6100   20.2540 C   0  0  0  0  0  0  0  0  0  0  0  0
    1.7240    5.8550   20.8750 C   0  0  0  0  0  0  0  0  0  0  0  0
    1.7930    7.0440   20.1380 C   0  0  0  0  0  0  0  0  0  0  0  0
    2.0610    6.9530   18.7610 C   0  0  0  0  0  0  0  0  0  0  0  0
    2.2120    5.6910   18.1520 C   0  0  0  0  0  0  0  0  0  0  0  0
    1.8660    3.7230   20.8840 H   0  0  0  0  0  0  0  0  0  0  0  0
    1.5680    5.8860   21.9520 H   0  0  0  0  0  0  0  0  0  0  0  0
    2.3570    5.6540   17.0760 H   0  0  0  0  0  0  0  0  0  0  0  0
    2.1910    8.1750   17.9150 C   0  0  0  0  0  0  0  0  0  0  0  0
    3.4290    8.4270   17.3930 N   0  0  0  0  0  0  0  0  0  0  0  0
    1.2620    8.9430   17.7070 O   0  0  0  0  0  0  0  0  0  0  0  0
    4.2580    7.9420   17.7060 H   0  0  0  0  0  0  0  0  0  0  0  0
    3.5400    9.2900   16.8780 H   0  0  0  0  0  0  0  0  0  0  0  0
    1.6390    8.3570   20.8630 C   0  0  0  0  0  0  0  0  0  0  0  0
    1.7320    8.2190   21.9450 H   0  0  0  0  0  0  0  0  0  0  0  0
    2.4370    9.0570   20.5810 H   0  0  0  0  0  0  0  0  0  0  0  0
    0.3580    8.9630   20.5800 N   0  0  0  0  0  0  0  0  0  0  0  0
    0.1980   10.3180   20.5730 C   0  0  0  0  0  0  0  0  0  0  0  0
    1.0900   11.1230   20.8010 O   0  0  0  0  0  0  0  0  0  0  0  0
   -1.0910   10.6590   20.2490 N   0  0  0  0  0  0  0  0  0  0  0  0
   -0.4580    8.4020   20.7910 H   0  0  0  0  0  0  0  0  0  0  0  0
   -1.5300    9.9940   19.6350 H   0  0  0  0  0  0  0  0  0  0  0  0
   -1.4100   12.0510   20.0260 C   0  0  2  0  0  0  0  0  0  0  0  0
   -0.4270   12.7320   19.0490 C   0  0  0  0  0  0  0  0  0  0  0  0
   -0.4020   14.2160   19.4300 C   0  0  0  0  0  0  0  0  0  0  0  0
   -0.6680   14.1470   20.9010 C   0  0  0  0  0  0  0  0  0  0  0  0
   -0.4760   15.1420   21.8440 C   0  0  0  0  0  0  0  0  0  0  0  0
   -0.8520   14.8880   23.1640 C   0  0  0  0  0  0  0  0  0  0  0  0
   -1.4270   13.6590   23.5170 C   0  0  0  0  0  0  0  0  0  0  0  0
   -1.6330   12.6650   22.5580 C   0  0  0  0  0  0  0  0  0  0  0  0
   -1.2390   12.9140   21.2500 C   0  0  0  0  0  0  0  0  0  0  0  0
   -2.4430   12.1390   19.6630 H   0  0  0  0  0  0  0  0  0  0  0  0
   -0.7060   12.5800   18.0000 H   0  0  0  0  0  0  0  0  0  0  0  0
    0.5810   12.3120   19.1740 H   0  0  0  0  0  0  0  0  0  0  0  0
   -1.2070   14.7640   18.9280 H   0  0  0  0  0  0  0  0  0  0  0  0
    0.5620   14.6750   19.2010 H   0  0  0  0  0  0  0  0  0  0  0  0
   -0.0470   16.1010   21.5660 H   0  0  0  0  0  0  0  0  0  0  0  0
   -0.7100   15.6560   23.9210 H   0  0  0  0  0  0  0  0  0  0  0  0
   -1.7270   13.4850   24.5480 H   0  0  0  0  0  0  0  0  0  0  0  0
   -2.1050   11.7280   22.8380 H   0  0  0  0  0  0  0  0  0  0  0  0
    2.2880    3.2360   18.2910 N   0  0  0  0  0  0  0  0  0  0  0  0
    1.2760    2.2070   18.5240 C   0  0  0  0  0  0  0  0  0  0  0  0
    1.1710    1.9990   19.5940 H   0  0  0  0  0  0  0  0  0  0  0  0
    1.5140    1.2760   17.9960 H   0  0  0  0  0  0  0  0  0  0  0  0
    0.2950    2.5520   18.1710 H   0  0  0  0  0  0  0  0  0  0  0  0
    3.6680    2.7480   18.1090 C   0  0  0  0  0  0  0  0  0  0  0  0
    3.9590    2.1690   18.9950 H   0  0  0  0  0  0  0  0  0  0  0  0
    3.7560    2.0360   17.2820 H   0  0  0  0  0  0  0  0  0  0  0  0
    6.4660    6.0140   17.5580 C   0  0  0  0  0  0  0  0  0  0  0  0
    5.7860    5.4690   16.4640 C   0  0  0  0  0  0  0  0  0  0  0  0
    4.8870    4.4150   16.6410 C   0  0  0  0  0  0  0  0  0  0  0  0
    4.6610    3.8750   17.9150 C   0  0  0  0  0  0  0  0  0  0  0  0
    5.3580    4.4130   19.0060 C   0  0  0  0  0  0  0  0  0  0  0  0
    6.2540    5.4690   18.8280 C   0  0  0  0  0  0  0  0  0  0  0  0
    5.9450    5.8670   15.4640 H   0  0  0  0  0  0  0  0  0  0  0  0
    4.3580    4.0180   15.7770 H   0  0  0  0  0  0  0  0  0  0  0  0
    5.2050    4.0120   20.0070 H   0  0  0  0  0  0  0  0  0  0  0  0
    6.7810    5.8690   19.6900 H   0  0  0  0  0  0  0  0  0  0  0  0
    7.4460    7.1310   17.3610 C   0  0  0  0  0  0  0  0  0  0  0  0
    7.0230    7.8850   16.6880 H   0  0  0  0  0  0  0  0  0  0  0  0
    8.3820    6.7610   16.9310 H   0  0  0  0  0  0  0  0  0  0  0  0
    7.6920    7.6060   18.3170 H   0  0  0  0  0  0  0  0  0  0  0  0
  1  2  1  0  0  0  0
  2  3  2  0  0  0  0
  2  7  1  0  0  0  0
  3  8  1  0  0  0  0
  4 15  1  0  0  0  0
  4  3  1  0  0  0  0
  5  4  2  0  0  0  0
  6  5  1  0  0  0  0
  6  1  2  0  0  0  0
  9  6  1  0  0  0  0
 10  5  1  0  0  0  0
 11 13  1  0  0  0  0
 11 10  1  0  0  0  0
 12 10  2  0  0  0  0
 14 11  1  0  0  0  0
 15 16  1  0  0  0  0
 17 15  1  0  0  0  0
 18 22  1  0  0  0  0
 18 15  1  0  0  0  0
 19 18  1  0  0  0  0
 19 20  2  0  0  0  0
 21 19  1  0  0  0  0
 23 21  1  0  0  0  0
 24 33  1  6  0  0  0
 24 21  1  0  0  0  0
 24 32  1  0  0  0  0
 25 35  1  0  0  0  0
 25 26  1  0  0  0  0
 25 24  1  0  0  0  0
 26 27  1  0  0  0  0
 27 32  2  0  0  0  0
 27 28  1  0  0  0  0
 28 29  2  0  0  0  0
 29 30  1  0  0  0  0
 29 39  1  0  0  0  0
 30 40  1  0  0  0  0
 31 41  1  0  0  0  0
 31 30  2  0  0  0  0
 32 31  1  0  0  0  0
 34 25  1  0  0  0  0
 36 26  1  0  0  0  0
 37 26  1  0  0  0  0
 38 28  1  0  0  0  0
 42 43  1  0  0  0  0
 42  1  1  0  0  0  0
 43 44  1  0  0  0  0
 45 43  1  0  0  0  0
 46 43  1  0  0  0  0
 47 42  1  0  0  0  0
 47 48  1  0  0  0  0
 49 47  1  0  0  0  0
 50 55  1  0  0  0  0
 51 52  1  0  0  0  0
 51 50  2  0  0  0  0
 52 53  2  0  0  0  0
 53 47  1  0  0  0  0
 53 54  1  0  0  0  0
 54 58  1  0  0  0  0
 55 54  2  0  0  0  0
 55 59  1  0  0  0  0
 56 51  1  0  0  0  0
 57 52  1  0  0  0  0
 60 50  1  0  0  0  0
 60 63  1  0  0  0  0
 61 60  1  0  0  0  0
 62 60  1  0  0  0  0
M  END
>  <MODEL>
13

>  <REMARK>
 VINA RESULT:    -7.151      1.815      3.018
 INTER + INTRA:         -11.352
 INTER:                 -11.170
 INTRA:                  -0.182
 UNBOUND:                -0.856
  Name = 
  9 active torsions:
  status: ('A' for Active; 'I' for Inactive)
    1  A    between atoms: C_1  and  C_2
    2  A    between atoms: C_5  and  C_6
    3  A    between atoms: C_6  and  N_7
    4  A    between atoms: N_7  and  C_8
    5  A    between atoms: N_7  and  C_9
    6  A    between atoms: C_12  and  C_13
    7  A    between atoms: C_13  and  N_14
    8  A    between atoms: N_17  and  C_18
    9  A    between atoms: C_27  and  C_28
                            x       y       z     vdW  Elec       q    Type
                         _______ _______ _______ _____ _____    ______ ____

>  <TORSDO>
F 9

$$$$
=
 OpenBabel07192307433D

 63 66  0  0  1  0  0  0  0  0999 V2000
    0.0810   10.7360   21.3620 C   0  0  0  0  0  0  0  0  0  0  0  0
    0.0550    9.6570   22.2560 C   0  0  0  0  0  0  0  0  0  0  0  0
    0.5530    8.3960   21.9100 C   0  0  0  0  0  0  0  0  0  0  0  0
    1.0980    8.1580   20.6410 C   0  0  0  0  0  0  0  0  0  0  0  0
    1.1050    9.2160   19.7160 C   0  0  0  0  0  0  0  0  0  0  0  0
    0.6100   10.4830   20.0870 C   0  0  0  0  0  0  0  0  0  0  0  0
   -0.3950    9.7720   23.2400 H   0  0  0  0  0  0  0  0  0  0  0  0
    0.4840    7.5880   22.6370 H   0  0  0  0  0  0  0  0  0  0  0  0
    0.6850   11.2940   19.3690 H   0  0  0  0  0  0  0  0  0  0  0  0
    1.6310    9.0320   18.3330 C   0  0  0  0  0  0  0  0  0  0  0  0
    1.9880   10.1670   17.6590 N   0  0  0  0  0  0  0  0  0  0  0  0
    1.7210    7.9380   17.7940 O   0  0  0  0  0  0  0  0  0  0  0  0
    1.7380   11.0910   17.9830 H   0  0  0  0  0  0  0  0  0  0  0  0
    2.2780   10.0540   16.6970 H   0  0  0  0  0  0  0  0  0  0  0  0
    1.5920    6.7720   20.3120 C   0  0  0  0  0  0  0  0  0  0  0  0
    1.4170    6.0860   21.1470 H   0  0  0  0  0  0  0  0  0  0  0  0
    1.0430    6.3520   19.4590 H   0  0  0  0  0  0  0  0  0  0  0  0
    3.0040    6.7800   20.0050 N   0  0  0  0  0  0  0  0  0  0  0  0
    3.6570    5.6420   19.6290 C   0  0  0  0  0  0  0  0  0  0  0  0
    3.1300    4.5440   19.5210 O   0  0  0  0  0  0  0  0  0  0  0  0
    4.9770    5.8990   19.3600 N   0  0  0  0  0  0  0  0  0  0  0  0
    3.5550    7.5020   20.4530 H   0  0  0  0  0  0  0  0  0  0  0  0
    5.1330    6.8300   19.0110 H   0  0  0  0  0  0  0  0  0  0  0  0
    5.7900    4.8510   18.7830 C   0  0  2  0  0  0  0  0  0  0  0  0
    7.2980    5.0690   19.0350 C   0  0  0  0  0  0  0  0  0  0  0  0
    8.0290    4.3940   17.8690 C   0  0  0  0  0  0  0  0  0  0  0  0
    7.0330    4.5550   16.7640 C   0  0  0  0  0  0  0  0  0  0  0  0
    7.2460    4.4060   15.4050 C   0  0  0  0  0  0  0  0  0  0  0  0
    6.1550    4.5380   14.5430 C   0  0  0  0  0  0  0  0  0  0  0  0
    4.8740    4.7990   15.0500 C   0  0  0  0  0  0  0  0  0  0  0  0
    4.6640    4.9330   16.4250 C   0  0  0  0  0  0  0  0  0  0  0  0
    5.7540    4.8200   17.2760 C   0  0  0  0  0  0  0  0  0  0  0  0
    5.4660    3.8770   19.1730 H   0  0  0  0  0  0  0  0  0  0  0  0
    7.6210    4.6780   20.0060 H   0  0  0  0  0  0  0  0  0  0  0  0
    7.5300    6.1430   19.0310 H   0  0  0  0  0  0  0  0  0  0  0  0
    8.1960    3.3320   18.0740 H   0  0  0  0  0  0  0  0  0  0  0  0
    8.9790    4.8860   17.6510 H   0  0  0  0  0  0  0  0  0  0  0  0
    8.2360    4.1860   15.0130 H   0  0  0  0  0  0  0  0  0  0  0  0
    6.3000    4.4250   13.4710 H   0  0  0  0  0  0  0  0  0  0  0  0
    4.0340    4.8850   14.3640 H   0  0  0  0  0  0  0  0  0  0  0  0
    3.6630    5.1060   16.8070 H   0  0  0  0  0  0  0  0  0  0  0  0
   -0.4290   11.9810   21.7390 N   0  0  0  0  0  0  0  0  0  0  0  0
   -1.2920   12.0670   22.9150 C   0  0  0  0  0  0  0  0  0  0  0  0
   -2.0380   12.8600   22.7950 H   0  0  0  0  0  0  0  0  0  0  0  0
   -0.7150   12.2500   23.8300 H   0  0  0  0  0  0  0  0  0  0  0  0
   -1.8470   11.1290   23.0500 H   0  0  0  0  0  0  0  0  0  0  0  0
   -0.7130   12.9510   20.6640 C   0  0  0  0  0  0  0  0  0  0  0  0
   -0.9640   13.9190   21.1170 H   0  0  0  0  0  0  0  0  0  0  0  0
    0.1670   13.1630   20.0470 H   0  0  0  0  0  0  0  0  0  0  0  0
   -3.9920   11.6470   18.1450 C   0  0  0  0  0  0  0  0  0  0  0  0
   -2.6690   11.5170   17.7110 C   0  0  0  0  0  0  0  0  0  0  0  0
   -1.6120   11.9400   18.5220 C   0  0  0  0  0  0  0  0  0  0  0  0
   -1.8600   12.5150   19.7760 C   0  0  0  0  0  0  0  0  0  0  0  0
   -3.1890   12.6600   20.1990 C   0  0  0  0  0  0  0  0  0  0  0  0
   -4.2440   12.2330   19.3890 C   0  0  0  0  0  0  0  0  0  0  0  0
   -2.4480   11.0770   16.7420 H   0  0  0  0  0  0  0  0  0  0  0  0
   -0.5900   11.8140   18.1700 H   0  0  0  0  0  0  0  0  0  0  0  0
   -3.4110   13.1060   21.1670 H   0  0  0  0  0  0  0  0  0  0  0  0
   -5.2650   12.3550   19.7400 H   0  0  0  0  0  0  0  0  0  0  0  0
   -5.1240   11.2110   17.2640 C   0  0  0  0  0  0  0  0  0  0  0  0
   -5.3780   10.1670   17.4700 H   0  0  0  0  0  0  0  0  0  0  0  0
   -4.8570   11.3070   16.2060 H   0  0  0  0  0  0  0  0  0  0  0  0
   -6.0100   11.8330   17.4340 H   0  0  0  0  0  0  0  0  0  0  0  0
  1 42  1  0  0  0  0
  1  2  1  0  0  0  0
  2  7  1  0  0  0  0
  3  2  2  0  0  0  0
  3  8  1  0  0  0  0
  4  3  1  0  0  0  0
  5  6  1  0  0  0  0
  5  4  2  0  0  0  0
  6  1  2  0  0  0  0
  9  6  1  0  0  0  0
 10  5  1  0  0  0  0
 11 13  1  0  0  0  0
 11 10  1  0  0  0  0
 12 10  2  0  0  0  0
 14 11  1  0  0  0  0
 15  4  1  0  0  0  0
 15 16  1  0  0  0  0
 17 15  1  0  0  0  0
 18 15  1  0  0  0  0
 18 22  1  0  0  0  0
 19 18  1  0  0  0  0
 20 19  2  0  0  0  0
 21 19  1  0  0  0  0
 23 21  1  0  0  0  0
 24 25  1  0  0  0  0
 24 33  1  1  0  0  0
 24 21  1  0  0  0  0
 25 34  1  0  0  0  0
 26 36  1  0  0  0  0
 26 25  1  0  0  0  0
 27 32  1  0  0  0  0
 27 26  1  0  0  0  0
 28 27  2  0  0  0  0
 29 30  2  0  0  0  0
 29 28  1  0  0  0  0
 30 31  1  0  0  0  0
 31 41  1  0  0  0  0
 31 32  2  0  0  0  0
 32 24  1  0  0  0  0
 35 25  1  0  0  0  0
 37 26  1  0  0  0  0
 38 28  1  0  0  0  0
 39 29  1  0  0  0  0
 40 30  1  0  0  0  0
 42 43  1  0  0  0  0
 43 46  1  0  0  0  0
 43 45  1  0  0  0  0
 44 43  1  0  0  0  0
 47 48  1  0  0  0  0
 47 42  1  0  0  0  0
 49 47  1  0  0  0  0
 50 55  1  0  0  0  0
 51 50  2  0  0  0  0
 51 52  1  0  0  0  0
 52 53  2  0  0  0  0
 53 54  1  0  0  0  0
 53 47  1  0  0  0  0
 54 58  1  0  0  0  0
 55 59  1  0  0  0  0
 55 54  2  0  0  0  0
 56 51  1  0  0  0  0
 57 52  1  0  0  0  0
 60 63  1  0  0  0  0
 60 61  1  0  0  0  0
 60 50  1  0  0  0  0
 62 60  1  0  0  0  0
M  END
>  <MODEL>
14

>  <REMARK>
 VINA RESULT:    -7.144      2.009      9.232
 INTER + INTRA:         -11.341
 INTER:                 -11.562
 INTRA:                   0.221
 UNBOUND:                -0.856
  Name = 
  9 active torsions:
  status: ('A' for Active; 'I' for Inactive)
    1  A    between atoms: C_1  and  C_2
    2  A    between atoms: C_5  and  C_6
    3  A    between atoms: C_6  and  N_7
    4  A    between atoms: N_7  and  C_8
    5  A    between atoms: N_7  and  C_9
    6  A    between atoms: C_12  and  C_13
    7  A    between atoms: C_13  and  N_14
    8  A    between atoms: N_17  and  C_18
    9  A    between atoms: C_27  and  C_28
                            x       y       z     vdW  Elec       q    Type
                         _______ _______ _______ _____ _____    ______ ____

>  <TORSDO>
F 9

$$$$
=
 OpenBabel07192307433D

 63 66  0  0  1  0  0  0  0  0999 V2000
   -1.8630   12.0410   20.2750 C   0  0  0  0  0  0  0  0  0  0  0  0
   -1.7050   11.2760   21.4390 C   0  0  0  0  0  0  0  0  0  0  0  0
   -0.4870   10.6680   21.7660 C   0  0  0  0  0  0  0  0  0  0  0  0
    0.6310   10.7960   20.9320 C   0  0  0  0  0  0  0  0  0  0  0  0
    0.4870   11.5320   19.7430 C   0  0  0  0  0  0  0  0  0  0  0  0
   -0.7430   12.1470   19.4360 C   0  0  0  0  0  0  0  0  0  0  0  0
   -2.5510   11.1080   22.1030 H   0  0  0  0  0  0  0  0  0  0  0  0
   -0.4300   10.0650   22.6710 H   0  0  0  0  0  0  0  0  0  0  0  0
   -0.8040   12.7580   18.5400 H   0  0  0  0  0  0  0  0  0  0  0  0
    1.6190   11.6800   18.7820 C   0  0  0  0  0  0  0  0  0  0  0  0
    1.7650   10.6870   17.8530 N   0  0  0  0  0  0  0  0  0  0  0  0
    2.4060   12.6150   18.8190 O   0  0  0  0  0  0  0  0  0  0  0  0
    1.2740    9.8060   17.9190 H   0  0  0  0  0  0  0  0  0  0  0  0
    2.5710   10.7470   17.2460 H   0  0  0  0  0  0  0  0  0  0  0  0
    1.9080   10.0950   21.3180 C   0  0  0  0  0  0  0  0  0  0  0  0
    2.6780   10.2350   20.5520 H   0  0  0  0  0  0  0  0  0  0  0  0
    2.3250   10.5160   22.2420 H   0  0  0  0  0  0  0  0  0  0  0  0
    1.6900    8.6780   21.5030 N   0  0  0  0  0  0  0  0  0  0  0  0
    1.6450    7.8200   20.4420 C   0  0  0  0  0  0  0  0  0  0  0  0
    1.7770    8.1560   19.2740 O   0  0  0  0  0  0  0  0  0  0  0  0
    1.4600    6.5280   20.8630 N   0  0  0  0  0  0  0  0  0  0  0  0
    1.1830    8.4090   22.3360 H   0  0  0  0  0  0  0  0  0  0  0  0
    1.8590    6.3490   21.7700 H   0  0  0  0  0  0  0  0  0  0  0  0
    1.5560    5.4580   19.8960 C   0  0  2  0  0  0  0  0  0  0  0  0
    0.8860    4.1570   20.3880 C   0  0  0  0  0  0  0  0  0  0  0  0
    1.6230    3.0060   19.6940 C   0  0  0  0  0  0  0  0  0  0  0  0
    2.9960    3.5830   19.5430 C   0  0  0  0  0  0  0  0  0  0  0  0
    4.1690    2.9090   19.2530 C   0  0  0  0  0  0  0  0  0  0  0  0
    5.3390    3.6540   19.0920 C   0  0  0  0  0  0  0  0  0  0  0  0
    5.3160    5.0520   19.2030 C   0  0  0  0  0  0  0  0  0  0  0  0
    4.1240    5.7260   19.4810 C   0  0  0  0  0  0  0  0  0  0  0  0
    2.9670    4.9800   19.6610 C   0  0  0  0  0  0  0  0  0  0  0  0
    1.1210    5.7830   18.9410 H   0  0  0  0  0  0  0  0  0  0  0  0
   -0.1910    4.1380   20.1860 H   0  0  0  0  0  0  0  0  0  0  0  0
    1.0080    4.0570   21.4750 H   0  0  0  0  0  0  0  0  0  0  0  0
    1.1910    2.8000   18.7100 H   0  0  0  0  0  0  0  0  0  0  0  0
    1.6160    2.0980   20.3020 H   0  0  0  0  0  0  0  0  0  0  0  0
    4.1840    1.8280   19.1490 H   0  0  0  0  0  0  0  0  0  0  0  0
    6.2730    3.1460   18.8630 H   0  0  0  0  0  0  0  0  0  0  0  0
    6.2350    5.6160   19.0600 H   0  0  0  0  0  0  0  0  0  0  0  0
    4.1130    6.8100   19.5370 H   0  0  0  0  0  0  0  0  0  0  0  0
   -3.0950   12.6310   19.9770 N   0  0  0  0  0  0  0  0  0  0  0  0
   -3.5470   13.7700   20.7730 C   0  0  0  0  0  0  0  0  0  0  0  0
   -4.0600   14.5060   20.1440 H   0  0  0  0  0  0  0  0  0  0  0  0
   -2.7140   14.2580   21.2940 H   0  0  0  0  0  0  0  0  0  0  0  0
   -4.2710   13.4420   21.5300 H   0  0  0  0  0  0  0  0  0  0  0  0
   -4.1580   11.7520   19.4540 C   0  0  0  0  0  0  0  0  0  0  0  0
   -4.2910   10.9070   20.1420 H   0  0  0  0  0  0  0  0  0  0  0  0
   -5.1370   12.2420   19.4380 H   0  0  0  0  0  0  0  0  0  0  0  0
   -3.2020   10.2500   15.5000 C   0  0  0  0  0  0  0  0  0  0  0  0
   -4.1020   11.3090   15.6590 C   0  0  0  0  0  0  0  0  0  0  0  0
   -4.4130   11.7910   16.9330 C   0  0  0  0  0  0  0  0  0  0  0  0
   -3.8390   11.2130   18.0740 C   0  0  0  0  0  0  0  0  0  0  0  0
   -2.9510   10.1410   17.9120 C   0  0  0  0  0  0  0  0  0  0  0  0
   -2.6390    9.6620   16.6370 C   0  0  0  0  0  0  0  0  0  0  0  0
   -4.5640   11.7730   14.7910 H   0  0  0  0  0  0  0  0  0  0  0  0
   -5.1030   12.6250   17.0310 H   0  0  0  0  0  0  0  0  0  0  0  0
   -2.4920    9.6710   18.7800 H   0  0  0  0  0  0  0  0  0  0  0  0
   -1.9460    8.8310   16.5370 H   0  0  0  0  0  0  0  0  0  0  0  0
   -2.8870    9.7220   14.1330 C   0  0  0  0  0  0  0  0  0  0  0  0
   -2.3010   10.4580   13.5740 H   0  0  0  0  0  0  0  0  0  0  0  0
   -3.8040    9.5050   13.5750 H   0  0  0  0  0  0  0  0  0  0  0  0
   -2.3180    8.7890   14.1980 H   0  0  0  0  0  0  0  0  0  0  0  0
  1  2  1  0  0  0  0
  2  3  2  0  0  0  0
  2  7  1  0  0  0  0
  3  8  1  0  0  0  0
  4 15  1  0  0  0  0
  4  3  1  0  0  0  0
  5  4  2  0  0  0  0
  6  5  1  0  0  0  0
  6  1  2  0  0  0  0
  9  6  1  0  0  0  0
 10 12  2  0  0  0  0
 10  5  1  0  0  0  0
 11 13  1  0  0  0  0
 11 10  1  0  0  0  0
 14 11  1  0  0  0  0
 15 18  1  0  0  0  0
 15 17  1  0  0  0  0
 16 15  1  0  0  0  0
 18 22  1  0  0  0  0
 19 21  1  0  0  0  0
 19 18  1  0  0  0  0
 20 19  2  0  0  0  0
 21 23  1  0  0  0  0
 24 33  1  6  0  0  0
 24 25  1  0  0  0  0
 24 21  1  0  0  0  0
 25 35  1  0  0  0  0
 26 37  1  0  0  0  0
 26 25  1  0  0  0  0
 27 32  1  0  0  0  0
 27 26  1  0  0  0  0
 28 27  2  0  0  0  0
 29 30  2  0  0  0  0
 29 28  1  0  0  0  0
 30 31  1  0  0  0  0
 31 41  1  0  0  0  0
 31 32  2  0  0  0  0
 32 24  1  0  0  0  0
 34 25  1  0  0  0  0
 36 26  1  0  0  0  0
 38 28  1  0  0  0  0
 39 29  1  0  0  0  0
 40 30  1  0  0  0  0
 42  1  1  0  0  0  0
 42 43  1  0  0  0  0
 43 45  1  0  0  0  0
 43 46  1  0  0  0  0
 44 43  1  0  0  0  0
 47 42  1  0  0  0  0
 47 48  1  0  0  0  0
 49 47  1  0  0  0  0
 50 51  2  0  0  0  0
 50 55  1  0  0  0  0
 51 52  1  0  0  0  0
 52 57  1  0  0  0  0
 52 53  2  0  0  0  0
 53 47  1  0  0  0  0
 54 53  1  0  0  0  0
 54 58  1  0  0  0  0
 55 54  2  0  0  0  0
 56 51  1  0  0  0  0
 59 55  1  0  0  0  0
 60 63  1  0  0  0  0
 60 50  1  0  0  0  0
 61 60  1  0  0  0  0
 62 60  1  0  0  0  0
M  END
>  <MODEL>
15

>  <REMARK>
 VINA RESULT:    -7.116      1.840      8.679
 INTER + INTRA:         -11.300
 INTER:                 -10.074
 INTRA:                  -1.226
 UNBOUND:                -0.856
  Name = 
  9 active torsions:
  status: ('A' for Active; 'I' for Inactive)
    1  A    between atoms: C_1  and  C_2
    2  A    between atoms: C_5  and  C_6
    3  A    between atoms: C_6  and  N_7
    4  A    between atoms: N_7  and  C_8
    5  A    between atoms: N_7  and  C_9
    6  A    between atoms: C_12  and  C_13
    7  A    between atoms: C_13  and  N_14
    8  A    between atoms: N_17  and  C_18
    9  A    between atoms: C_27  and  C_28
                            x       y       z     vdW  Elec       q    Type
                         _______ _______ _______ _____ _____    ______ ____

>  <TORSDO>
F 9

$$$$
=
 OpenBabel07192307433D

 63 66  0  0  1  0  0  0  0  0999 V2000
    1.9000    4.3920   18.8740 C   0  0  0  0  0  0  0  0  0  0  0  0
    1.5970    4.5930   20.2270 C   0  0  0  0  0  0  0  0  0  0  0  0
    1.6050    5.8670   20.8070 C   0  0  0  0  0  0  0  0  0  0  0  0
    1.9260    7.0020   20.0510 C   0  0  0  0  0  0  0  0  0  0  0  0
    2.2650    6.8220   18.6990 C   0  0  0  0  0  0  0  0  0  0  0  0
    2.2400    5.5320   18.1300 C   0  0  0  0  0  0  0  0  0  0  0  0
    1.3820    3.7430   20.8720 H   0  0  0  0  0  0  0  0  0  0  0  0
    1.3860    5.9600   21.8690 H   0  0  0  0  0  0  0  0  0  0  0  0
    2.4490    5.4350   17.0680 H   0  0  0  0  0  0  0  0  0  0  0  0
    2.6580    7.9750   17.8380 C   0  0  0  0  0  0  0  0  0  0  0  0
    1.6570    8.8330   17.4740 N   0  0  0  0  0  0  0  0  0  0  0  0
    3.8010    8.1510   17.4410 O   0  0  0  0  0  0  0  0  0  0  0  0
    0.6800    8.6120   17.6030 H   0  0  0  0  0  0  0  0  0  0  0  0
    1.9040    9.5750   16.8340 H   0  0  0  0  0  0  0  0  0  0  0  0
    1.9500    8.3460   20.7340 C   0  0  0  0  0  0  0  0  0  0  0  0
    2.3720    8.2650   21.7410 H   0  0  0  0  0  0  0  0  0  0  0  0
    2.5960    9.0500   20.1940 H   0  0  0  0  0  0  0  0  0  0  0  0
    0.6210    8.9060   20.8310 N   0  0  0  0  0  0  0  0  0  0  0  0
    0.4240   10.2420   21.0310 C   0  0  0  0  0  0  0  0  0  0  0  0
    1.3220   11.0650   21.1450 O   0  0  0  0  0  0  0  0  0  0  0  0
   -0.9140   10.5430   21.0570 N   0  0  0  0  0  0  0  0  0  0  0  0
   -0.1060    8.2790   21.1530 H   0  0  0  0  0  0  0  0  0  0  0  0
   -1.4660    9.9290   20.4820 H   0  0  0  0  0  0  0  0  0  0  0  0
   -1.3170   11.9310   21.0880 C   0  0  2  0  0  0  0  0  0  0  0  0
   -1.5830   12.4350   22.5230 C   0  0  0  0  0  0  0  0  0  0  0  0
   -2.6170   13.5590   22.3990 C   0  0  0  0  0  0  0  0  0  0  0  0
   -3.3890   13.1170   21.1950 C   0  0  0  0  0  0  0  0  0  0  0  0
   -4.6260   13.5690   20.7710 C   0  0  0  0  0  0  0  0  0  0  0  0
   -5.1420   13.0650   19.5750 C   0  0  0  0  0  0  0  0  0  0  0  0
   -4.4130   12.1370   18.8180 C   0  0  0  0  0  0  0  0  0  0  0  0
   -3.1580   11.6970   19.2460 C   0  0  0  0  0  0  0  0  0  0  0  0
   -2.6560   12.1850   20.4450 C   0  0  0  0  0  0  0  0  0  0  0  0
   -0.5550   12.5480   20.5930 H   0  0  0  0  0  0  0  0  0  0  0  0
   -0.6680   12.7710   23.0250 H   0  0  0  0  0  0  0  0  0  0  0  0
   -2.0030   11.6260   23.1360 H   0  0  0  0  0  0  0  0  0  0  0  0
   -2.1300   14.5200   22.2020 H   0  0  0  0  0  0  0  0  0  0  0  0
   -3.2410   13.6330   23.2920 H   0  0  0  0  0  0  0  0  0  0  0  0
   -5.1830   14.3020   21.3470 H   0  0  0  0  0  0  0  0  0  0  0  0
   -6.1130   13.4070   19.2220 H   0  0  0  0  0  0  0  0  0  0  0  0
   -4.8250   11.7670   17.8820 H   0  0  0  0  0  0  0  0  0  0  0  0
   -2.5900   11.0000   18.6380 H   0  0  0  0  0  0  0  0  0  0  0  0
    1.8870    3.1050   18.3280 N   0  0  0  0  0  0  0  0  0  0  0  0
    0.8200    2.1830   18.7120 C   0  0  0  0  0  0  0  0  0  0  0  0
    0.0390    2.1500   17.9450 H   0  0  0  0  0  0  0  0  0  0  0  0
    0.3710    2.4590   19.6740 H   0  0  0  0  0  0  0  0  0  0  0  0
    1.2150    1.1620   18.8060 H   0  0  0  0  0  0  0  0  0  0  0  0
    3.1900    2.4850   18.0220 C   0  0  0  0  0  0  0  0  0  0  0  0
    3.4400    1.7720   18.8180 H   0  0  0  0  0  0  0  0  0  0  0  0
    3.1610    1.8740   17.1140 H   0  0  0  0  0  0  0  0  0  0  0  0
    6.3420    5.4460   17.7070 C   0  0  0  0  0  0  0  0  0  0  0  0
    5.6620    5.0100   16.5660 C   0  0  0  0  0  0  0  0  0  0  0  0
    4.6480    4.0530   16.6670 C   0  0  0  0  0  0  0  0  0  0  0  0
    4.3060    3.5040   17.9100 C   0  0  0  0  0  0  0  0  0  0  0  0
    5.0020    3.9320   19.0490 C   0  0  0  0  0  0  0  0  0  0  0  0
    6.0130    4.8900   18.9470 C   0  0  0  0  0  0  0  0  0  0  0  0
    5.9090    5.4170   15.5880 H   0  0  0  0  0  0  0  0  0  0  0  0
    4.1220    3.7410   15.7670 H   0  0  0  0  0  0  0  0  0  0  0  0
    4.7600    3.5200   20.0280 H   0  0  0  0  0  0  0  0  0  0  0  0
    6.5380    5.2060   19.8450 H   0  0  0  0  0  0  0  0  0  0  0  0
    7.4430    6.4570   17.5920 C   0  0  0  0  0  0  0  0  0  0  0  0
    7.2240    7.3230   18.2250 H   0  0  0  0  0  0  0  0  0  0  0  0
    7.5580    6.7970   16.5570 H   0  0  0  0  0  0  0  0  0  0  0  0
    8.4010    6.0240   17.9000 H   0  0  0  0  0  0  0  0  0  0  0  0
  1  2  1  0  0  0  0
  2  3  2  0  0  0  0
  2  7  1  0  0  0  0
  3  8  1  0  0  0  0
  4 15  1  0  0  0  0
  4  3  1  0  0  0  0
  5  4  2  0  0  0  0
  6  5  1  0  0  0  0
  6  1  2  0  0  0  0
  9  6  1  0  0  0  0
 10  5  1  0  0  0  0
 11 13  1  0  0  0  0
 11 10  1  0  0  0  0
 12 10  2  0  0  0  0
 14 11  1  0  0  0  0
 15 18  1  0  0  0  0
 15 16  1  0  0  0  0
 17 15  1  0  0  0  0
 18 19  1  0  0  0  0
 18 22  1  0  0  0  0
 19 21  1  0  0  0  0
 19 20  2  0  0  0  0
 21 24  1  0  0  0  0
 23 21  1  0  0  0  0
 24 33  1  6  0  0  0
 24 25  1  0  0  0  0
 25 34  1  0  0  0  0
 25 35  1  0  0  0  0
 26 25  1  0  0  0  0
 26 37  1  0  0  0  0
 27 26  1  0  0  0  0
 28 27  1  0  0  0  0
 28 38  1  0  0  0  0
 29 28  2  0  0  0  0
 30 31  2  0  0  0  0
 30 29  1  0  0  0  0
 31 32  1  0  0  0  0
 32 24  1  0  0  0  0
 32 27  2  0  0  0  0
 36 26  1  0  0  0  0
 39 29  1  0  0  0  0
 40 30  1  0  0  0  0
 41 31  1  0  0  0  0
 42 43  1  0  0  0  0
 42  1  1  0  0  0  0
 43 46  1  0  0  0  0
 43 45  1  0  0  0  0
 44 43  1  0  0  0  0
 47 42  1  0  0  0  0
 47 48  1  0  0  0  0
 49 47  1  0  0  0  0
 50 55  1  0  0  0  0
 51 52  1  0  0  0  0
 51 50  2  0  0  0  0
 52 53  2  0  0  0  0
 53 47  1  0  0  0  0
 53 54  1  0  0  0  0
 54 58  1  0  0  0  0
 55 54  2  0  0  0  0
 55 59  1  0  0  0  0
 56 51  1  0  0  0  0
 57 52  1  0  0  0  0
 60 50  1  0  0  0  0
 60 63  1  0  0  0  0
 60 61  1  0  0  0  0
 62 60  1  0  0  0  0
M  END
>  <MODEL>
16

>  <REMARK>
 VINA RESULT:    -7.116      1.163      1.754
 INTER + INTRA:         -11.300
 INTER:                 -10.989
 INTRA:                  -0.310
 UNBOUND:                -0.856
  Name = 
  9 active torsions:
  status: ('A' for Active; 'I' for Inactive)
    1  A    between atoms: C_1  and  C_2
    2  A    between atoms: C_5  and  C_6
    3  A    between atoms: C_6  and  N_7
    4  A    between atoms: N_7  and  C_8
    5  A    between atoms: N_7  and  C_9
    6  A    between atoms: C_12  and  C_13
    7  A    between atoms: C_13  and  N_14
    8  A    between atoms: N_17  and  C_18
    9  A    between atoms: C_27  and  C_28
                            x       y       z     vdW  Elec       q    Type
                         _______ _______ _______ _____ _____    ______ ____

>  <TORSDO>
F 9

$$$$
=
 OpenBabel07192307433D

 63 66  0  0  1  0  0  0  0  0999 V2000
    5.8320    6.1290   18.3710 C   0  0  0  0  0  0  0  0  0  0  0  0
    5.4160    7.1280   17.4800 C   0  0  0  0  0  0  0  0  0  0  0  0
    4.0740    7.5100   17.3700 C   0  0  0  0  0  0  0  0  0  0  0  0
    3.0830    6.8990   18.1500 C   0  0  0  0  0  0  0  0  0  0  0  0
    3.4720    5.8720   19.0270 C   0  0  0  0  0  0  0  0  0  0  0  0
    4.8300    5.5090   19.1330 C   0  0  0  0  0  0  0  0  0  0  0  0
    6.1360    7.6070   16.8200 H   0  0  0  0  0  0  0  0  0  0  0  0
    3.8060    8.2750   16.6430 H   0  0  0  0  0  0  0  0  0  0  0  0
    5.1050    4.7540   19.8640 H   0  0  0  0  0  0  0  0  0  0  0  0
    2.4710    5.1450   19.8600 C   0  0  0  0  0  0  0  0  0  0  0  0
    2.3580    5.5440   21.1640 N   0  0  0  0  0  0  0  0  0  0  0  0
    1.7950    4.2200   19.4340 O   0  0  0  0  0  0  0  0  0  0  0  0
    3.0330    6.1520   21.6060 H   0  0  0  0  0  0  0  0  0  0  0  0
    1.7330    5.0090   21.7510 H   0  0  0  0  0  0  0  0  0  0  0  0
    1.6490    7.3290   17.9680 C   0  0  0  0  0  0  0  0  0  0  0  0
    1.1720    6.7620   17.1620 H   0  0  0  0  0  0  0  0  0  0  0  0
    1.0600    7.1220   18.8700 H   0  0  0  0  0  0  0  0  0  0  0  0
    1.5610    8.7380   17.6600 N   0  0  0  0  0  0  0  0  0  0  0  0
    0.9750    9.6200   18.5210 C   0  0  0  0  0  0  0  0  0  0  0  0
    0.4830    9.3130   19.5970 O   0  0  0  0  0  0  0  0  0  0  0  0
    1.0370   10.8990   18.0320 N   0  0  0  0  0  0  0  0  0  0  0  0
    1.5590    8.9810   16.6770 H   0  0  0  0  0  0  0  0  0  0  0  0
    1.8480   11.0620   17.4580 H   0  0  0  0  0  0  0  0  0  0  0  0
    0.6200   11.9930   18.8810 C   0  0  2  0  0  0  0  0  0  0  0  0
    1.1600   11.8590   20.3210 C   0  0  0  0  0  0  0  0  0  0  0  0
    0.1530   12.5780   21.2250 C   0  0  0  0  0  0  0  0  0  0  0  0
   -1.1230   12.3650   20.4730 C   0  0  0  0  0  0  0  0  0  0  0  0
   -2.4160   12.5300   20.9360 C   0  0  0  0  0  0  0  0  0  0  0  0
   -3.4720   12.3390   20.0420 C   0  0  0  0  0  0  0  0  0  0  0  0
   -3.2200   12.0050   18.7030 C   0  0  0  0  0  0  0  0  0  0  0  0
   -1.9110   11.8550   18.2390 C   0  0  0  0  0  0  0  0  0  0  0  0
   -0.8650   12.0270   19.1360 C   0  0  0  0  0  0  0  0  0  0  0  0
    0.9320   12.9460   18.4340 H   0  0  0  0  0  0  0  0  0  0  0  0
    2.1730   12.2660   20.4280 H   0  0  0  0  0  0  0  0  0  0  0  0
    1.2100   10.8000   20.6100 H   0  0  0  0  0  0  0  0  0  0  0  0
    0.3770   13.6480   21.2910 H   0  0  0  0  0  0  0  0  0  0  0  0
    0.1260   12.1410   22.2260 H   0  0  0  0  0  0  0  0  0  0  0  0
   -2.6110   12.8070   21.9690 H   0  0  0  0  0  0  0  0  0  0  0  0
   -4.4960   12.4630   20.3850 H   0  0  0  0  0  0  0  0  0  0  0  0
   -4.0540   11.8740   18.0180 H   0  0  0  0  0  0  0  0  0  0  0  0
   -1.7280   11.6240   17.1940 H   0  0  0  0  0  0  0  0  0  0  0  0
    7.1800    5.7690   18.4530 N   0  0  0  0  0  0  0  0  0  0  0  0
    8.1920    6.8210   18.5270 C   0  0  0  0  0  0  0  0  0  0  0  0
    9.2000    6.3920   18.5500 H   0  0  0  0  0  0  0  0  0  0  0  0
    8.0500    7.4590   19.4080 H   0  0  0  0  0  0  0  0  0  0  0  0
    8.1410    7.4610   17.6370 H   0  0  0  0  0  0  0  0  0  0  0  0
    7.5930    4.5300   17.7670 C   0  0  0  0  0  0  0  0  0  0  0  0
    8.6840    4.5370   17.6470 H   0  0  0  0  0  0  0  0  0  0  0  0
    7.3950    3.6330   18.3640 H   0  0  0  0  0  0  0  0  0  0  0  0
    5.7950    4.0520   13.8510 C   0  0  0  0  0  0  0  0  0  0  0  0
    6.9630    4.8050   14.0080 C   0  0  0  0  0  0  0  0  0  0  0  0
    7.5410    4.9620   15.2710 C   0  0  0  0  0  0  0  0  0  0  0  0
    6.9530    4.3800   16.4020 C   0  0  0  0  0  0  0  0  0  0  0  0
    5.7720    3.6410   16.2420 C   0  0  0  0  0  0  0  0  0  0  0  0
    5.1970    3.4820   14.9790 C   0  0  0  0  0  0  0  0  0  0  0  0
    7.4390    5.2690   13.1480 H   0  0  0  0  0  0  0  0  0  0  0  0
    8.4580    5.5380   15.3660 H   0  0  0  0  0  0  0  0  0  0  0  0
    5.2910    3.1800   17.1040 H   0  0  0  0  0  0  0  0  0  0  0  0
    4.2830    2.9040   14.8810 H   0  0  0  0  0  0  0  0  0  0  0  0
    5.1660    3.9040   12.4980 C   0  0  0  0  0  0  0  0  0  0  0  0
    5.1210    2.8460   12.2200 H   0  0  0  0  0  0  0  0  0  0  0  0
    5.7400    4.4430   11.7370 H   0  0  0  0  0  0  0  0  0  0  0  0
    4.1520    4.3160   12.4940 H   0  0  0  0  0  0  0  0  0  0  0  0
  1 42  1  0  0  0  0
  1  6  1  0  0  0  0
  2  1  2  0  0  0  0
  3  2  1  0  0  0  0
  3  4  2  0  0  0  0
  4  5  1  0  0  0  0
  5  6  2  0  0  0  0
  5 10  1  0  0  0  0
  6  9  1  0  0  0  0
  7  2  1  0  0  0  0
  8  3  1  0  0  0  0
 10 11  1  0  0  0  0
 11 13  1  0  0  0  0
 11 14  1  0  0  0  0
 12 10  2  0  0  0  0
 15  4  1  0  0  0  0
 15 17  1  0  0  0  0
 16 15  1  0  0  0  0
 18 15  1  0  0  0  0
 18 19  1  0  0  0  0
 19 20  2  0  0  0  0
 21 19  1  0  0  0  0
 21 24  1  0  0  0  0
 22 18  1  0  0  0  0
 23 21  1  0  0  0  0
 24 33  1  6  0  0  0
 24 32  1  0  0  0  0
 24 25  1  0  0  0  0
 25 34  1  0  0  0  0
 25 35  1  0  0  0  0
 25 26  1  0  0  0  0
 26 36  1  0  0  0  0
 26 37  1  0  0  0  0
 27 28  1  0  0  0  0
 27 26  1  0  0  0  0
 28 38  1  0  0  0  0
 29 39  1  0  0  0  0
 29 28  2  0  0  0  0
 30 29  1  0  0  0  0
 31 30  2  0  0  0  0
 31 32  1  0  0  0  0
 32 27  2  0  0  0  0
 40 30  1  0  0  0  0
 41 31  1  0  0  0  0
 42 43  1  0  0  0  0
 43 44  1  0  0  0  0
 43 45  1  0  0  0  0
 46 43  1  0  0  0  0
 47 49  1  0  0  0  0
 47 42  1  0  0  0  0
 48 47  1  0  0  0  0
 50 51  2  0  0  0  0
 50 55  1  0  0  0  0
 51 52  1  0  0  0  0
 52 57  1  0  0  0  0
 52 53  2  0  0  0  0
 53 47  1  0  0  0  0
 54 53  1  0  0  0  0
 54 58  1  0  0  0  0
 55 54  2  0  0  0  0
 56 51  1  0  0  0  0
 59 55  1  0  0  0  0
 60 50  1  0  0  0  0
 61 60  1  0  0  0  0
 62 60  1  0  0  0  0
 63 60  1  0  0  0  0
M  END
>  <MODEL>
17

>  <REMARK>
 VINA RESULT:    -7.115      2.266      4.001
 INTER + INTRA:         -11.299
 INTER:                 -10.772
 INTRA:                  -0.526
 UNBOUND:                -0.856
  Name = 
  9 active torsions:
  status: ('A' for Active; 'I' for Inactive)
    1  A    between atoms: C_1  and  C_2
    2  A    between atoms: C_5  and  C_6
    3  A    between atoms: C_6  and  N_7
    4  A    between atoms: N_7  and  C_8
    5  A    between atoms: N_7  and  C_9
    6  A    between atoms: C_12  and  C_13
    7  A    between atoms: C_13  and  N_14
    8  A    between atoms: N_17  and  C_18
    9  A    between atoms: C_27  and  C_28
                            x       y       z     vdW  Elec       q    Type
                         _______ _______ _______ _____ _____    ______ ____

>  <TORSDO>
F 9

$$$$
=
 OpenBabel07192307433D

 63 66  0  0  1  0  0  0  0  0999 V2000
   -0.1280   13.4730   20.0000 C   0  0  0  0  0  0  0  0  0  0  0  0
    1.1100   12.8460   20.1960 C   0  0  0  0  0  0  0  0  0  0  0  0
    1.4310   11.6300   19.5810 C   0  0  0  0  0  0  0  0  0  0  0  0
    0.5160   10.9830   18.7400 C   0  0  0  0  0  0  0  0  0  0  0  0
   -0.7440   11.5760   18.5540 C   0  0  0  0  0  0  0  0  0  0  0  0
   -1.0450   12.8070   19.1720 C   0  0  0  0  0  0  0  0  0  0  0  0
    1.8430   13.2810   20.8720 H   0  0  0  0  0  0  0  0  0  0  0  0
    2.3990   11.1770   19.7900 H   0  0  0  0  0  0  0  0  0  0  0  0
   -2.0050   13.2680   18.9600 H   0  0  0  0  0  0  0  0  0  0  0  0
   -1.7880   10.9290   17.7060 C   0  0  0  0  0  0  0  0  0  0  0  0
   -2.0880   11.5510   16.5260 N   0  0  0  0  0  0  0  0  0  0  0  0
   -2.3790    9.9120   18.0380 O   0  0  0  0  0  0  0  0  0  0  0  0
   -1.7800   12.4900   16.3150 H   0  0  0  0  0  0  0  0  0  0  0  0
   -2.8430   11.1570   15.9820 H   0  0  0  0  0  0  0  0  0  0  0  0
    0.9030    9.6600   18.1280 C   0  0  0  0  0  0  0  0  0  0  0  0
    0.0200    9.1270   17.7620 H   0  0  0  0  0  0  0  0  0  0  0  0
    1.5490    9.8070   17.2530 H   0  0  0  0  0  0  0  0  0  0  0  0
    1.5880    8.8230   19.0860 N   0  0  0  0  0  0  0  0  0  0  0  0
    2.0810    7.5990   18.7370 C   0  0  0  0  0  0  0  0  0  0  0  0
    1.9910    7.1080   17.6200 O   0  0  0  0  0  0  0  0  0  0  0  0
    2.7160    7.0040   19.7960 N   0  0  0  0  0  0  0  0  0  0  0  0
    1.3420    8.9610   20.0580 H   0  0  0  0  0  0  0  0  0  0  0  0
    3.1350    7.6670   20.4270 H   0  0  0  0  0  0  0  0  0  0  0  0
    3.4490    5.7780   19.5730 C   0  0  2  0  0  0  0  0  0  0  0  0
    4.2290    5.7910   18.2410 C   0  0  0  0  0  0  0  0  0  0  0  0
    4.3400    4.3300   17.7940 C   0  0  0  0  0  0  0  0  0  0  0  0
    3.0820    3.7520   18.3600 C   0  0  0  0  0  0  0  0  0  0  0  0
    2.4840    2.5460   18.0370 C   0  0  0  0  0  0  0  0  0  0  0  0
    1.3380    2.1640   18.7370 C   0  0  0  0  0  0  0  0  0  0  0  0
    0.8190    2.9790   19.7540 C   0  0  0  0  0  0  0  0  0  0  0  0
    1.4360    4.1890   20.0840 C   0  0  0  0  0  0  0  0  0  0  0  0
    2.5640    4.5740   19.3730 C   0  0  0  0  0  0  0  0  0  0  0  0
    4.1240    5.5930   20.4190 H   0  0  0  0  0  0  0  0  0  0  0  0
    5.2110    6.2690   18.3360 H   0  0  0  0  0  0  0  0  0  0  0  0
    3.6720    6.3580   17.4820 H   0  0  0  0  0  0  0  0  0  0  0  0
    5.2130    3.8470   18.2450 H   0  0  0  0  0  0  0  0  0  0  0  0
    4.3880    4.2440   16.7060 H   0  0  0  0  0  0  0  0  0  0  0  0
    2.8970    1.9060   17.2620 H   0  0  0  0  0  0  0  0  0  0  0  0
    0.8530    1.2200   18.5000 H   0  0  0  0  0  0  0  0  0  0  0  0
   -0.0670    2.6590   20.2980 H   0  0  0  0  0  0  0  0  0  0  0  0
    1.0420    4.7970   20.8910 H   0  0  0  0  0  0  0  0  0  0  0  0
   -0.4170   14.6840   20.6340 N   0  0  0  0  0  0  0  0  0  0  0  0
    0.4340   15.1290   21.7360 C   0  0  0  0  0  0  0  0  0  0  0  0
    1.4930   15.0110   21.4820 H   0  0  0  0  0  0  0  0  0  0  0  0
    0.2200   14.5800   22.6610 H   0  0  0  0  0  0  0  0  0  0  0  0
    0.2720   16.1970   21.9340 H   0  0  0  0  0  0  0  0  0  0  0  0
   -1.8340   15.0850   20.7160 C   0  0  0  0  0  0  0  0  0  0  0  0
   -1.8880   16.1640   20.9100 H   0  0  0  0  0  0  0  0  0  0  0  0
   -2.3630   14.9560   19.7660 H   0  0  0  0  0  0  0  0  0  0  0  0
   -4.0160   13.0360   23.8540 C   0  0  0  0  0  0  0  0  0  0  0  0
   -3.1090   14.0530   24.1680 C   0  0  0  0  0  0  0  0  0  0  0  0
   -2.4040   14.7120   23.1570 C   0  0  0  0  0  0  0  0  0  0  0  0
   -2.5810   14.3540   21.8130 C   0  0  0  0  0  0  0  0  0  0  0  0
   -3.4780   13.3210   21.5050 C   0  0  0  0  0  0  0  0  0  0  0  0
   -4.1850   12.6670   22.5160 C   0  0  0  0  0  0  0  0  0  0  0  0
   -2.9500   14.3490   25.2020 H   0  0  0  0  0  0  0  0  0  0  0  0
   -1.7160   15.5110   23.4240 H   0  0  0  0  0  0  0  0  0  0  0  0
   -3.6340   13.0200   20.4700 H   0  0  0  0  0  0  0  0  0  0  0  0
   -4.8750   11.8700   22.2510 H   0  0  0  0  0  0  0  0  0  0  0  0
   -4.7550   12.3180   24.9430 C   0  0  0  0  0  0  0  0  0  0  0  0
   -5.5740   12.9420   25.3130 H   0  0  0  0  0  0  0  0  0  0  0  0
   -4.0890   12.0790   25.7780 H   0  0  0  0  0  0  0  0  0  0  0  0
   -5.1680   11.3720   24.5740 H   0  0  0  0  0  0  0  0  0  0  0  0
  1  2  1  0  0  0  0
  1 42  1  0  0  0  0
  2  7  1  0  0  0  0
  3  8  1  0  0  0  0
  3  2  2  0  0  0  0
  4  3  1  0  0  0  0
  5  4  2  0  0  0  0
  5  6  1  0  0  0  0
  6  1  2  0  0  0  0
  9  6  1  0  0  0  0
 10 12  2  0  0  0  0
 10  5  1  0  0  0  0
 11 10  1  0  0  0  0
 13 11  1  0  0  0  0
 14 11  1  0  0  0  0
 15  4  1  0  0  0  0
 15 18  1  0  0  0  0
 16 15  1  0  0  0  0
 17 15  1  0  0  0  0
 18 22  1  0  0  0  0
 19 18  1  0  0  0  0
 19 21  1  0  0  0  0
 20 19  2  0  0  0  0
 21 23  1  0  0  0  0
 24 21  1  0  0  0  0
 24 33  1  1  0  0  0
 25 34  1  0  0  0  0
 25 24  1  0  0  0  0
 26 25  1  0  0  0  0
 26 36  1  0  0  0  0
 26 27  1  0  0  0  0
 27 32  1  0  0  0  0
 28 27  2  0  0  0  0
 28 29  1  0  0  0  0
 29 30  2  0  0  0  0
 30 31  1  0  0  0  0
 30 40  1  0  0  0  0
 31 41  1  0  0  0  0
 32 24  1  0  0  0  0
 32 31  2  0  0  0  0
 35 25  1  0  0  0  0
 37 26  1  0  0  0  0
 38 28  1  0  0  0  0
 39 29  1  0  0  0  0
 42 47  1  0  0  0  0
 42 43  1  0  0  0  0
 43 46  1  0  0  0  0
 43 45  1  0  0  0  0
 44 43  1  0  0  0  0
 47 48  1  0  0  0  0
 47 53  1  0  0  0  0
 49 47  1  0  0  0  0
 50 51  1  0  0  0  0
 50 60  1  0  0  0  0
 51 56  1  0  0  0  0
 52 57  1  0  0  0  0
 52 51  2  0  0  0  0
 53 52  1  0  0  0  0
 54 53  2  0  0  0  0
 54 55  1  0  0  0  0
 55 50  2  0  0  0  0
 58 54  1  0  0  0  0
 59 55  1  0  0  0  0
 60 61  1  0  0  0  0
 60 62  1  0  0  0  0
 63 60  1  0  0  0  0
M  END
>  <MODEL>
18

>  <REMARK>
 VINA RESULT:    -7.087      2.673      9.843
 INTER + INTRA:         -11.257
 INTER:                 -11.375
 INTRA:                   0.118
 UNBOUND:                -0.856
  Name = 
  9 active torsions:
  status: ('A' for Active; 'I' for Inactive)
    1  A    between atoms: C_1  and  C_2
    2  A    between atoms: C_5  and  C_6
    3  A    between atoms: C_6  and  N_7
    4  A    between atoms: N_7  and  C_8
    5  A    between atoms: N_7  and  C_9
    6  A    between atoms: C_12  and  C_13
    7  A    between atoms: C_13  and  N_14
    8  A    between atoms: N_17  and  C_18
    9  A    between atoms: C_27  and  C_28
                            x       y       z     vdW  Elec       q    Type
                         _______ _______ _______ _____ _____    ______ ____

>  <TORSDO>
F 9

$$$$
=
 OpenBabel07192307433D

 63 66  0  0  1  0  0  0  0  0999 V2000
    5.8300    6.1490   18.3650 C   0  0  0  0  0  0  0  0  0  0  0  0
    5.4030    7.1490   17.4810 C   0  0  0  0  0  0  0  0  0  0  0  0
    4.0560    7.5170   17.3740 C   0  0  0  0  0  0  0  0  0  0  0  0
    3.0720    6.8910   18.1510 C   0  0  0  0  0  0  0  0  0  0  0  0
    3.4730    5.8630   19.0210 C   0  0  0  0  0  0  0  0  0  0  0  0
    4.8350    5.5130   19.1240 C   0  0  0  0  0  0  0  0  0  0  0  0
    6.1160    7.6400   16.8230 H   0  0  0  0  0  0  0  0  0  0  0  0
    3.7790    8.2830   16.6520 H   0  0  0  0  0  0  0  0  0  0  0  0
    5.1190    4.7570   19.8490 H   0  0  0  0  0  0  0  0  0  0  0  0
    2.4810    5.1200   19.8510 C   0  0  0  0  0  0  0  0  0  0  0  0
    2.3450    5.5270   21.1490 N   0  0  0  0  0  0  0  0  0  0  0  0
    1.8320    4.1740   19.4270 O   0  0  0  0  0  0  0  0  0  0  0  0
    3.0010    6.1550   21.5920 H   0  0  0  0  0  0  0  0  0  0  0  0
    1.7260    4.9830   21.7350 H   0  0  0  0  0  0  0  0  0  0  0  0
    1.6340    7.3050   17.9730 C   0  0  0  0  0  0  0  0  0  0  0  0
    1.3460    7.2720   16.9170 H   0  0  0  0  0  0  0  0  0  0  0  0
    0.9590    6.6120   18.4900 H   0  0  0  0  0  0  0  0  0  0  0  0
    1.4100    8.6430   18.4730 N   0  0  0  0  0  0  0  0  0  0  0  0
    1.0220    8.8650   19.7620 C   0  0  0  0  0  0  0  0  0  0  0  0
    0.8290    7.9840   20.5890 O   0  0  0  0  0  0  0  0  0  0  0  0
    0.9040   10.2070   20.0160 N   0  0  0  0  0  0  0  0  0  0  0  0
    1.1510    9.3390   17.7860 H   0  0  0  0  0  0  0  0  0  0  0  0
    1.5360   10.7680   19.4700 H   0  0  0  0  0  0  0  0  0  0  0  0
    0.6660   10.6430   21.3740 C   0  0  2  0  0  0  0  0  0  0  0  0
    0.2480    9.4820   22.3020 C   0  0  0  0  0  0  0  0  0  0  0  0
   -0.6160   10.1040   23.4040 C   0  0  0  0  0  0  0  0  0  0  0  0
   -1.2440   11.2500   22.6760 C   0  0  0  0  0  0  0  0  0  0  0  0
   -2.3410   12.0000   23.0630 C   0  0  0  0  0  0  0  0  0  0  0  0
   -2.7260   13.0760   22.2600 C   0  0  0  0  0  0  0  0  0  0  0  0
   -2.0050   13.3950   21.1010 C   0  0  0  0  0  0  0  0  0  0  0  0
   -0.8890   12.6420   20.7240 C   0  0  0  0  0  0  0  0  0  0  0  0
   -0.5210   11.5620   21.5140 C   0  0  0  0  0  0  0  0  0  0  0  0
    1.5610   11.1490   21.7610 H   0  0  0  0  0  0  0  0  0  0  0  0
    1.1090    8.9410   22.7090 H   0  0  0  0  0  0  0  0  0  0  0  0
   -0.3530    8.7500   21.7440 H   0  0  0  0  0  0  0  0  0  0  0  0
    0.0040   10.4750   24.2270 H   0  0  0  0  0  0  0  0  0  0  0  0
   -1.3550    9.3950   23.7850 H   0  0  0  0  0  0  0  0  0  0  0  0
   -2.8890   11.7640   23.9710 H   0  0  0  0  0  0  0  0  0  0  0  0
   -3.5850   13.6790   22.5460 H   0  0  0  0  0  0  0  0  0  0  0  0
   -2.3120   14.2450   20.4960 H   0  0  0  0  0  0  0  0  0  0  0  0
   -0.3220   12.9160   19.8400 H   0  0  0  0  0  0  0  0  0  0  0  0
    7.1820    5.8030   18.4430 N   0  0  0  0  0  0  0  0  0  0  0  0
    8.1850    6.8650   18.4770 C   0  0  0  0  0  0  0  0  0  0  0  0
    8.7040    6.9420   17.5160 H   0  0  0  0  0  0  0  0  0  0  0  0
    8.9210    6.7040   19.2740 H   0  0  0  0  0  0  0  0  0  0  0  0
    7.7040    7.8370   18.6550 H   0  0  0  0  0  0  0  0  0  0  0  0
    7.5990    4.5480   17.7890 C   0  0  0  0  0  0  0  0  0  0  0  0
    8.6920    4.5500   17.6820 H   0  0  0  0  0  0  0  0  0  0  0  0
    7.3910    3.6650   18.4020 H   0  0  0  0  0  0  0  0  0  0  0  0
    5.8490    3.9940   13.8610 C   0  0  0  0  0  0  0  0  0  0  0  0
    6.9950    4.7790   14.0230 C   0  0  0  0  0  0  0  0  0  0  0  0
    7.5570    4.9600   15.2890 C   0  0  0  0  0  0  0  0  0  0  0  0
    6.9750    4.3710   16.4200 C   0  0  0  0  0  0  0  0  0  0  0  0
    5.8160    3.6000   16.2550 C   0  0  0  0  0  0  0  0  0  0  0  0
    5.2570    3.4160   14.9890 C   0  0  0  0  0  0  0  0  0  0  0  0
    7.4660    5.2500   13.1630 H   0  0  0  0  0  0  0  0  0  0  0  0
    8.4580    5.5620   15.3880 H   0  0  0  0  0  0  0  0  0  0  0  0
    5.3400    3.1320   17.1160 H   0  0  0  0  0  0  0  0  0  0  0  0
    4.3590    2.8130   14.8870 H   0  0  0  0  0  0  0  0  0  0  0  0
    5.2370    3.8190   12.5040 C   0  0  0  0  0  0  0  0  0  0  0  0
    5.2830    2.7670   12.2050 H   0  0  0  0  0  0  0  0  0  0  0  0
    5.7620    4.4210   11.7550 H   0  0  0  0  0  0  0  0  0  0  0  0
    4.1900    4.1420   12.5050 H   0  0  0  0  0  0  0  0  0  0  0  0
  1 42  1  0  0  0  0
  1  6  1  0  0  0  0
  2  1  2  0  0  0  0
  3  2  1  0  0  0  0
  3  4  2  0  0  0  0
  4  5  1  0  0  0  0
  5  6  2  0  0  0  0
  5 10  1  0  0  0  0
  6  9  1  0  0  0  0
  7  2  1  0  0  0  0
  8  3  1  0  0  0  0
 10 11  1  0  0  0  0
 11 13  1  0  0  0  0
 11 14  1  0  0  0  0
 12 10  2  0  0  0  0
 15  4  1  0  0  0  0
 15 18  1  0  0  0  0
 15 17  1  0  0  0  0
 16 15  1  0  0  0  0
 18 19  1  0  0  0  0
 19 21  1  0  0  0  0
 19 20  2  0  0  0  0
 21 24  1  0  0  0  0
 22 18  1  0  0  0  0
 23 21  1  0  0  0  0
 24 32  1  0  0  0  0
 24 33  1  1  0  0  0
 24 25  1  0  0  0  0
 25 34  1  0  0  0  0
 25 26  1  0  0  0  0
 26 37  1  0  0  0  0
 26 36  1  0  0  0  0
 27 28  1  0  0  0  0
 27 26  1  0  0  0  0
 28 38  1  0  0  0  0
 29 39  1  0  0  0  0
 29 28  2  0  0  0  0
 30 29  1  0  0  0  0
 31 30  2  0  0  0  0
 31 32  1  0  0  0  0
 32 27  2  0  0  0  0
 35 25  1  0  0  0  0
 40 30  1  0  0  0  0
 41 31  1  0  0  0  0
 42 43  1  0  0  0  0
 43 46  1  0  0  0  0
 43 45  1  0  0  0  0
 44 43  1  0  0  0  0
 47 49  1  0  0  0  0
 47 42  1  0  0  0  0
 48 47  1  0  0  0  0
 50 51  2  0  0  0  0
 50 55  1  0  0  0  0
 51 52  1  0  0  0  0
 52 57  1  0  0  0  0
 52 53  2  0  0  0  0
 53 47  1  0  0  0  0
 54 53  1  0  0  0  0
 54 58  1  0  0  0  0
 55 54  2  0  0  0  0
 56 51  1  0  0  0  0
 59 55  1  0  0  0  0
 60 63  1  0  0  0  0
 60 50  1  0  0  0  0
 61 60  1  0  0  0  0
 62 60  1  0  0  0  0
M  END
>  <MODEL>
19

>  <REMARK>
 VINA RESULT:    -7.034      2.710      4.450
 INTER + INTRA:         -11.179
 INTER:                 -10.807
 INTRA:                  -0.372
 UNBOUND:                -0.856
  Name = 
  9 active torsions:
  status: ('A' for Active; 'I' for Inactive)
    1  A    between atoms: C_1  and  C_2
    2  A    between atoms: C_5  and  C_6
    3  A    between atoms: C_6  and  N_7
    4  A    between atoms: N_7  and  C_8
    5  A    between atoms: N_7  and  C_9
    6  A    between atoms: C_12  and  C_13
    7  A    between atoms: C_13  and  N_14
    8  A    between atoms: N_17  and  C_18
    9  A    between atoms: C_27  and  C_28
                            x       y       z     vdW  Elec       q    Type
                         _______ _______ _______ _____ _____    ______ ____

>  <TORSDO>
F 9

$$$$
=
 OpenBabel07192307433D

 63 66  0  0  1  0  0  0  0  0999 V2000
   -1.5660   12.0490   19.5600 C   0  0  0  0  0  0  0  0  0  0  0  0
   -1.6170   10.7010   19.1800 C   0  0  0  0  0  0  0  0  0  0  0  0
   -0.4960   10.0310   18.6740 C   0  0  0  0  0  0  0  0  0  0  0  0
    0.7310   10.6900   18.5210 C   0  0  0  0  0  0  0  0  0  0  0  0
    0.7970   12.0510   18.8650 C   0  0  0  0  0  0  0  0  0  0  0  0
   -0.3380   12.7060   19.3840 C   0  0  0  0  0  0  0  0  0  0  0  0
   -2.5540   10.1510   19.2380 H   0  0  0  0  0  0  0  0  0  0  0  0
   -0.6010    8.9900   18.3720 H   0  0  0  0  0  0  0  0  0  0  0  0
   -0.2370   13.7410   19.6960 H   0  0  0  0  0  0  0  0  0  0  0  0
    2.0560   12.8330   18.6920 C   0  0  0  0  0  0  0  0  0  0  0  0
    2.4290   13.1140   17.4070 N   0  0  0  0  0  0  0  0  0  0  0  0
    2.7510   13.1920   19.6310 O   0  0  0  0  0  0  0  0  0  0  0  0
    2.0030   12.6640   16.6080 H   0  0  0  0  0  0  0  0  0  0  0  0
    3.3160   13.5810   17.2810 H   0  0  0  0  0  0  0  0  0  0  0  0
    1.8960    9.9280   17.9420 C   0  0  0  0  0  0  0  0  0  0  0  0
    2.1150   10.2650   16.9240 H   0  0  0  0  0  0  0  0  0  0  0  0
    2.8100   10.1090   18.5220 H   0  0  0  0  0  0  0  0  0  0  0  0
    1.6290    8.5080   17.9140 N   0  0  0  0  0  0  0  0  0  0  0  0
    2.6390    7.5920   17.9830 C   0  0  0  0  0  0  0  0  0  0  0  0
    3.8260    7.8750   18.0700 O   0  0  0  0  0  0  0  0  0  0  0  0
    2.1440    6.3130   17.9710 N   0  0  0  0  0  0  0  0  0  0  0  0
    0.7780    8.2220   17.4460 H   0  0  0  0  0  0  0  0  0  0  0  0
    1.2320    6.2410   18.3900 H   0  0  0  0  0  0  0  0  0  0  0  0
    3.0500    5.2120   18.2080 C   0  0  2  0  0  0  0  0  0  0  0  0
    2.9870    4.1460   17.0930 C   0  0  0  0  0  0  0  0  0  0  0  0
    3.3770    2.8160   17.7470 C   0  0  0  0  0  0  0  0  0  0  0  0
    2.8820    3.0190   19.1450 C   0  0  0  0  0  0  0  0  0  0  0  0
    2.6860    2.0580   20.1210 C   0  0  0  0  0  0  0  0  0  0  0  0
    2.2760    2.4740   21.3890 C   0  0  0  0  0  0  0  0  0  0  0  0
    2.0860    3.8350   21.6660 C   0  0  0  0  0  0  0  0  0  0  0  0
    2.3010    4.8010   20.6800 C   0  0  0  0  0  0  0  0  0  0  0  0
    2.6890    4.3820   19.4140 C   0  0  0  0  0  0  0  0  0  0  0  0
    4.0730    5.5940   18.3260 H   0  0  0  0  0  0  0  0  0  0  0  0
    3.6330    4.3920   16.2420 H   0  0  0  0  0  0  0  0  0  0  0  0
    1.9630    4.0680   16.7020 H   0  0  0  0  0  0  0  0  0  0  0  0
    4.4630    2.6830   17.7480 H   0  0  0  0  0  0  0  0  0  0  0  0
    2.8970    1.9680   17.2520 H   0  0  0  0  0  0  0  0  0  0  0  0
    2.8510    1.0050   19.9110 H   0  0  0  0  0  0  0  0  0  0  0  0
    2.1170    1.7350   22.1710 H   0  0  0  0  0  0  0  0  0  0  0  0
    1.7810    4.1410   22.6640 H   0  0  0  0  0  0  0  0  0  0  0  0
    2.1780    5.8540   20.9140 H   0  0  0  0  0  0  0  0  0  0  0  0
   -2.7050   12.6890   20.0570 N   0  0  0  0  0  0  0  0  0  0  0  0
   -4.0220   12.2270   19.6250 C   0  0  0  0  0  0  0  0  0  0  0  0
   -4.6610   12.0070   20.4880 H   0  0  0  0  0  0  0  0  0  0  0  0
   -3.9530   11.3360   18.9890 H   0  0  0  0  0  0  0  0  0  0  0  0
   -4.5300   13.0130   19.0490 H   0  0  0  0  0  0  0  0  0  0  0  0
   -2.5970   14.1280   20.3580 C   0  0  0  0  0  0  0  0  0  0  0  0
   -1.7300   14.5390   19.8240 H   0  0  0  0  0  0  0  0  0  0  0  0
   -3.4450   14.7030   19.9730 H   0  0  0  0  0  0  0  0  0  0  0  0
   -2.1270   14.9700   24.5860 C   0  0  0  0  0  0  0  0  0  0  0  0
   -1.0100   14.9010   23.7480 C   0  0  0  0  0  0  0  0  0  0  0  0
   -1.1600   14.6260   22.3860 C   0  0  0  0  0  0  0  0  0  0  0  0
   -2.4320   14.4020   21.8390 C   0  0  0  0  0  0  0  0  0  0  0  0
   -3.5470   14.4550   22.6870 C   0  0  0  0  0  0  0  0  0  0  0  0
   -3.3950   14.7330   24.0470 C   0  0  0  0  0  0  0  0  0  0  0  0
   -0.0110   15.0680   24.1460 H   0  0  0  0  0  0  0  0  0  0  0  0
   -0.2780   14.5930   21.7500 H   0  0  0  0  0  0  0  0  0  0  0  0
   -4.5470   14.2820   22.2910 H   0  0  0  0  0  0  0  0  0  0  0  0
   -4.2760   14.7700   24.6830 H   0  0  0  0  0  0  0  0  0  0  0  0
   -1.9590   15.2440   26.0500 C   0  0  0  0  0  0  0  0  0  0  0  0
   -1.5760   14.3520   26.5560 H   0  0  0  0  0  0  0  0  0  0  0  0
   -2.9120   15.5270   26.5090 H   0  0  0  0  0  0  0  0  0  0  0  0
   -1.2610   16.0720   26.2130 H   0  0  0  0  0  0  0  0  0  0  0  0
  1 42  1  0  0  0  0
  2  7  1  0  0  0  0
  2  1  2  0  0  0  0
  3  2  1  0  0  0  0
  4  3  2  0  0  0  0
  4  5  1  0  0  0  0
  5  6  2  0  0  0  0
  6  1  1  0  0  0  0
  6  9  1  0  0  0  0
  8  3  1  0  0  0  0
 10  5  1  0  0  0  0
 10 12  2  0  0  0  0
 11 10  1  0  0  0  0
 13 11  1  0  0  0  0
 14 11  1  0  0  0  0
 15  4  1  0  0  0  0
 15 17  1  0  0  0  0
 16 15  1  0  0  0  0
 18 15  1  0  0  0  0
 18 19  1  0  0  0  0
 19 20  2  0  0  0  0
 21 19  1  0  0  0  0
 21 24  1  0  0  0  0
 21 23  1  0  0  0  0
 22 18  1  0  0  0  0
 24 33  1  1  0  0  0
 24 32  1  0  0  0  0
 25 26  1  0  0  0  0
 25 24  1  0  0  0  0
 26 36  1  0  0  0  0
 26 27  1  0  0  0  0
 27 32  2  0  0  0  0
 27 28  1  0  0  0  0
 28 29  2  0  0  0  0
 29 30  1  0  0  0  0
 29 39  1  0  0  0  0
 30 40  1  0  0  0  0
 31 41  1  0  0  0  0
 31 30  2  0  0  0  0
 32 31  1  0  0  0  0
 34 25  1  0  0  0  0
 35 25  1  0  0  0  0
 37 26  1  0  0  0  0
 38 28  1  0  0  0  0
 42 47  1  0  0  0  0
 43 42  1  0  0  0  0
 43 44  1  0  0  0  0
 45 43  1  0  0  0  0
 46 43  1  0  0  0  0
 47 53  1  0  0  0  0
 48 47  1  0  0  0  0
 49 47  1  0  0  0  0
 50 60  1  0  0  0  0
 51 56  1  0  0  0  0
 51 50  2  0  0  0  0
 52 51  1  0  0  0  0
 53 52  2  0  0  0  0
 53 54  1  0  0  0  0
 54 55  2  0  0  0  0
 55 50  1  0  0  0  0
 55 59  1  0  0  0  0
 57 52  1  0  0  0  0
 58 54  1  0  0  0  0
 60 63  1  0  0  0  0
 60 62  1  0  0  0  0
 60 61  1  0  0  0  0
M  END
>  <MODEL>
20

>  <REMARK>
 VINA RESULT:    -6.986      2.755      9.811
 INTER + INTRA:         -11.109
 INTER:                 -10.129
 INTRA:                  -0.980
 UNBOUND:                -0.856
  Name = 
  9 active torsions:
  status: ('A' for Active; 'I' for Inactive)
    1  A    between atoms: C_1  and  C_2
    2  A    between atoms: C_5  and  C_6
    3  A    between atoms: C_6  and  N_7
    4  A    between atoms: N_7  and  C_8
    5  A    between atoms: N_7  and  C_9
    6  A    between atoms: C_12  and  C_13
    7  A    between atoms: C_13  and  N_14
    8  A    between atoms: N_17  and  C_18
    9  A    between atoms: C_27  and  C_28
                            x       y       z     vdW  Elec       q    Type
                         _______ _______ _______ _____ _____    ______ ____

>  <TORSDO>
F 9

$$$$
=
 OpenBabel07192307433D

 63 66  0  0  1  0  0  0  0  0999 V2000
    1.7670   13.1780   20.4650 C   0  0  0  0  0  0  0  0  0  0  0  0
    1.9030   13.1260   19.0710 C   0  0  0  0  0  0  0  0  0  0  0  0
    1.5820   11.9770   18.3380 C   0  0  0  0  0  0  0  0  0  0  0  0
    1.1130   10.8210   18.9760 C   0  0  0  0  0  0  0  0  0  0  0  0
    1.0000   10.8390   20.3770 C   0  0  0  0  0  0  0  0  0  0  0  0
    1.3170   12.0090   21.0970 C   0  0  0  0  0  0  0  0  0  0  0  0
    2.3020   13.9800   18.5270 H   0  0  0  0  0  0  0  0  0  0  0  0
    1.7300   11.9860   17.2590 H   0  0  0  0  0  0  0  0  0  0  0  0
    1.1610   12.0090   22.1720 H   0  0  0  0  0  0  0  0  0  0  0  0
    0.5480    9.6360   21.1330 C   0  0  0  0  0  0  0  0  0  0  0  0
    1.5270    8.7960   21.5860 N   0  0  0  0  0  0  0  0  0  0  0  0
   -0.6310    9.3750   21.3270 O   0  0  0  0  0  0  0  0  0  0  0  0
    2.4850    8.8610   21.2720 H   0  0  0  0  0  0  0  0  0  0  0  0
    1.2240    7.9440   22.0370 H   0  0  0  0  0  0  0  0  0  0  0  0
    0.8120    9.6030   18.1410 C   0  0  0  0  0  0  0  0  0  0  0  0
    0.2460    8.8640   18.7170 H   0  0  0  0  0  0  0  0  0  0  0  0
    0.1790    9.8620   17.2820 H   0  0  0  0  0  0  0  0  0  0  0  0
    2.0270    8.9860   17.6600 N   0  0  0  0  0  0  0  0  0  0  0  0
    2.4710    7.7980   18.1660 C   0  0  0  0  0  0  0  0  0  0  0  0
    1.9040    7.1650   19.0460 O   0  0  0  0  0  0  0  0  0  0  0  0
    3.6210    7.3950   17.5370 N   0  0  0  0  0  0  0  0  0  0  0  0
    2.7230    9.6100   17.2720 H   0  0  0  0  0  0  0  0  0  0  0  0
    3.6750    7.7030   16.5810 H   0  0  0  0  0  0  0  0  0  0  0  0
    4.1470    6.0780   17.8190 C   0  0  2  0  0  0  0  0  0  0  0  0
    4.9460    6.0330   19.1400 C   0  0  0  0  0  0  0  0  0  0  0  0
    5.9780    4.9120   18.9780 C   0  0  0  0  0  0  0  0  0  0  0  0
    6.2330    4.9560   17.5040 C   0  0  0  0  0  0  0  0  0  0  0  0
    7.2830    4.3810   16.8090 C   0  0  0  0  0  0  0  0  0  0  0  0
    7.2960    4.4900   15.4170 C   0  0  0  0  0  0  0  0  0  0  0  0
    6.2590    5.1510   14.7440 C   0  0  0  0  0  0  0  0  0  0  0  0
    5.1950    5.7160   15.4510 C   0  0  0  0  0  0  0  0  0  0  0  0
    5.1950    5.6230   16.8370 C   0  0  0  0  0  0  0  0  0  0  0  0
    3.3260    5.3490   17.8350 H   0  0  0  0  0  0  0  0  0  0  0  0
    4.3020    5.8770   20.0130 H   0  0  0  0  0  0  0  0  0  0  0  0
    5.4710    6.9850   19.2970 H   0  0  0  0  0  0  0  0  0  0  0  0
    5.5530    3.9430   19.2580 H   0  0  0  0  0  0  0  0  0  0  0  0
    6.8790    5.1060   19.5650 H   0  0  0  0  0  0  0  0  0  0  0  0
    8.0770    3.8530   17.3300 H   0  0  0  0  0  0  0  0  0  0  0  0
    8.1110    4.0450   14.8510 H   0  0  0  0  0  0  0  0  0  0  0  0
    6.2800    5.2130   13.6580 H   0  0  0  0  0  0  0  0  0  0  0  0
    4.3840    6.2010   14.9170 H   0  0  0  0  0  0  0  0  0  0  0  0
    2.1010   14.3400   21.1660 N   0  0  0  0  0  0  0  0  0  0  0  0
    1.0770   15.0010   21.9730 C   0  0  0  0  0  0  0  0  0  0  0  0
    1.5150   15.8000   22.5800 H   0  0  0  0  0  0  0  0  0  0  0  0
    0.5560   14.2920   22.6280 H   0  0  0  0  0  0  0  0  0  0  0  0
    0.3270   15.4720   21.3230 H   0  0  0  0  0  0  0  0  0  0  0  0
    3.1140   15.2280   20.5640 C   0  0  0  0  0  0  0  0  0  0  0  0
    3.0540   15.1450   19.4710 H   0  0  0  0  0  0  0  0  0  0  0  0
    2.9180   16.2860   20.7640 H   0  0  0  0  0  0  0  0  0  0  0  0
    7.1390   14.1870   21.7940 C   0  0  0  0  0  0  0  0  0  0  0  0
    6.0480   13.8940   22.6180 C   0  0  0  0  0  0  0  0  0  0  0  0
    4.7500   14.2320   22.2230 C   0  0  0  0  0  0  0  0  0  0  0  0
    4.5230   14.8840   21.0020 C   0  0  0  0  0  0  0  0  0  0  0  0
    5.6220   15.1910   20.1880 C   0  0  0  0  0  0  0  0  0  0  0  0
    6.9180   14.8500   20.5830 C   0  0  0  0  0  0  0  0  0  0  0  0
    6.1960   13.3920   23.5710 H   0  0  0  0  0  0  0  0  0  0  0  0
    3.9150   13.9800   22.8720 H   0  0  0  0  0  0  0  0  0  0  0  0
    5.4750   15.7000   19.2370 H   0  0  0  0  0  0  0  0  0  0  0  0
    7.7530   15.0980   19.9340 H   0  0  0  0  0  0  0  0  0  0  0  0
    8.5310   13.8420   22.2310 C   0  0  0  0  0  0  0  0  0  0  0  0
    8.7060   14.2100   23.2470 H   0  0  0  0  0  0  0  0  0  0  0  0
    9.2750   14.2870   21.5620 H   0  0  0  0  0  0  0  0  0  0  0  0
    8.6860   12.7580   22.2150 H   0  0  0  0  0  0  0  0  0  0  0  0
  1  6  1  0  0  0  0
  1 42  1  0  0  0  0
  2  1  2  0  0  0  0
  3  4  2  0  0  0  0
  3  2  1  0  0  0  0
  4  5  1  0  0  0  0
  5  6  2  0  0  0  0
  5 10  1  0  0  0  0
  6  9  1  0  0  0  0
  7  2  1  0  0  0  0
  8  3  1  0  0  0  0
 10 12  2  0  0  0  0
 10 11  1  0  0  0  0
 11 14  1  0  0  0  0
 13 11  1  0  0  0  0
 15 16  1  0  0  0  0
 15  4  1  0  0  0  0
 17 15  1  0  0  0  0
 18 15  1  0  0  0  0
 18 19  1  0  0  0  0
 19 20  2  0  0  0  0
 21 24  1  0  0  0  0
 21 19  1  0  0  0  0
 22 18  1  0  0  0  0
 23 21  1  0  0  0  0
 24 33  1  1  0  0  0
 24 25  1  0  0  0  0
 25 35  1  0  0  0  0
 25 34  1  0  0  0  0
 26 25  1  0  0  0  0
 26 36  1  0  0  0  0
 26 37  1  0  0  0  0
 27 26  1  0  0  0  0
 28 38  1  0  0  0  0
 28 27  2  0  0  0  0
 29 28  1  0  0  0  0
 30 29  2  0  0  0  0
 30 31  1  0  0  0  0
 31 32  2  0  0  0  0
 32 27  1  0  0  0  0
 32 24  1  0  0  0  0
 39 29  1  0  0  0  0
 40 30  1  0  0  0  0
 41 31  1  0  0  0  0
 42 43  1  0  0  0  0
 43 44  1  0  0  0  0
 43 45  1  0  0  0  0
 46 43  1  0  0  0  0
 47 49  1  0  0  0  0
 47 53  1  0  0  0  0
 47 42  1  0  0  0  0
 48 47  1  0  0  0  0
 50 60  1  0  0  0  0
 50 51  1  0  0  0  0
 51 56  1  0  0  0  0
 52 51  2  0  0  0  0
 52 57  1  0  0  0  0
 53 52  1  0  0  0  0
 54 55  1  0  0  0  0
 54 53  2  0  0  0  0
 55 50  2  0  0  0  0
 58 54  1  0  0  0  0
 59 55  1  0  0  0  0
 60 61  1  0  0  0  0
 62 60  1  0  0  0  0
 63 60  1  0  0  0  0
M  END
>  <MODEL>
21

>  <REMARK>
 VINA RESULT:    -6.902      4.183      9.193
 INTER + INTRA:         -10.987
 INTER:                  -9.493
 INTRA:                  -1.494
 UNBOUND:                -0.856
  Name = 
  9 active torsions:
  status: ('A' for Active; 'I' for Inactive)
    1  A    between atoms: C_1  and  C_2
    2  A    between atoms: C_5  and  C_6
    3  A    between atoms: C_6  and  N_7
    4  A    between atoms: N_7  and  C_8
    5  A    between atoms: N_7  and  C_9
    6  A    between atoms: C_12  and  C_13
    7  A    between atoms: C_13  and  N_14
    8  A    between atoms: N_17  and  C_18
    9  A    between atoms: C_27  and  C_28
                            x       y       z     vdW  Elec       q    Type
                         _______ _______ _______ _____ _____    ______ ____

>  <TORSDO>
F 9

$$$$
=
 OpenBabel07192307433D

 63 66  0  0  1  0  0  0  0  0999 V2000
    4.9340    6.2370   18.2060 C   0  0  0  0  0  0  0  0  0  0  0  0
    4.6020    6.9880   17.0710 C   0  0  0  0  0  0  0  0  0  0  0  0
    3.4280    7.7470   17.0010 C   0  0  0  0  0  0  0  0  0  0  0  0
    2.5250    7.7800   18.0720 C   0  0  0  0  0  0  0  0  0  0  0  0
    2.8200    7.0090   19.2090 C   0  0  0  0  0  0  0  0  0  0  0  0
    4.0140    6.2610   19.2660 C   0  0  0  0  0  0  0  0  0  0  0  0
    5.2450    6.9670   16.1930 H   0  0  0  0  0  0  0  0  0  0  0  0
    3.2100    8.2910   16.0830 H   0  0  0  0  0  0  0  0  0  0  0  0
    4.2410    5.7240   20.1820 H   0  0  0  0  0  0  0  0  0  0  0  0
    1.8900    6.9590   20.3740 C   0  0  0  0  0  0  0  0  0  0  0  0
    1.4630    5.7190   20.7620 N   0  0  0  0  0  0  0  0  0  0  0  0
    1.4920    7.9600   20.9520 O   0  0  0  0  0  0  0  0  0  0  0  0
    1.5980    4.8960   20.1910 H   0  0  0  0  0  0  0  0  0  0  0  0
    0.7790    5.6850   21.5050 H   0  0  0  0  0  0  0  0  0  0  0  0
    1.2600    8.5890   17.9300 C   0  0  0  0  0  0  0  0  0  0  0  0
    0.9700    8.6780   16.8780 H   0  0  0  0  0  0  0  0  0  0  0  0
    0.4200    8.0930   18.4330 H   0  0  0  0  0  0  0  0  0  0  0  0
    1.4240    9.9150   18.4810 N   0  0  0  0  0  0  0  0  0  0  0  0
    0.3810   10.7920   18.5450 C   0  0  0  0  0  0  0  0  0  0  0  0
   -0.7530   10.5510   18.1540 O   0  0  0  0  0  0  0  0  0  0  0  0
    0.7650   11.9700   19.1330 N   0  0  0  0  0  0  0  0  0  0  0  0
    2.3550   10.3070   18.4320 H   0  0  0  0  0  0  0  0  0  0  0  0
    1.4970   11.8500   19.8130 H   0  0  0  0  0  0  0  0  0  0  0  0
   -0.2440   12.9590   19.4430 C   0  0  2  0  0  0  0  0  0  0  0  0
    0.2800   14.4030   19.2900 C   0  0  0  0  0  0  0  0  0  0  0  0
   -0.5380   15.2610   20.2620 C   0  0  0  0  0  0  0  0  0  0  0  0
   -0.8330   14.2750   21.3480 C   0  0  0  0  0  0  0  0  0  0  0  0
   -1.2850   14.5380   22.6300 C   0  0  0  0  0  0  0  0  0  0  0  0
   -1.5610   13.4580   23.4710 C   0  0  0  0  0  0  0  0  0  0  0  0
   -1.3980   12.1410   23.0180 C   0  0  0  0  0  0  0  0  0  0  0  0
   -0.9550   11.8830   21.7180 C   0  0  0  0  0  0  0  0  0  0  0  0
   -0.6640   12.9600   20.8910 C   0  0  0  0  0  0  0  0  0  0  0  0
   -1.1270   12.7950   18.8110 H   0  0  0  0  0  0  0  0  0  0  0  0
    0.2080   14.7670   18.2590 H   0  0  0  0  0  0  0  0  0  0  0  0
    1.3400   14.4530   19.5720 H   0  0  0  0  0  0  0  0  0  0  0  0
   -1.4700   15.6000   19.7980 H   0  0  0  0  0  0  0  0  0  0  0  0
    0.0340   16.1200   20.6200 H   0  0  0  0  0  0  0  0  0  0  0  0
   -1.4290   15.5580   22.9750 H   0  0  0  0  0  0  0  0  0  0  0  0
   -1.9180   13.6420   24.4820 H   0  0  0  0  0  0  0  0  0  0  0  0
   -1.6310   11.3130   23.6830 H   0  0  0  0  0  0  0  0  0  0  0  0
   -0.8600   10.8600   21.3690 H   0  0  0  0  0  0  0  0  0  0  0  0
    6.1130    5.4880   18.2410 N   0  0  0  0  0  0  0  0  0  0  0  0
    7.3670    6.1190   17.8340 C   0  0  0  0  0  0  0  0  0  0  0  0
    7.2460    6.6480   16.8830 H   0  0  0  0  0  0  0  0  0  0  0  0
    8.1790    5.3880   17.7410 H   0  0  0  0  0  0  0  0  0  0  0  0
    7.6730    6.8690   18.5760 H   0  0  0  0  0  0  0  0  0  0  0  0
    6.0060    4.0420   17.9680 C   0  0  0  0  0  0  0  0  0  0  0  0
    6.2910    3.8560   16.9240 H   0  0  0  0  0  0  0  0  0  0  0  0
    6.7190    3.4500   18.5510 H   0  0  0  0  0  0  0  0  0  0  0  0
    1.9800    2.5770   18.6360 C   0  0  0  0  0  0  0  0  0  0  0  0
    2.9330    2.5250   19.6580 C   0  0  0  0  0  0  0  0  0  0  0  0
    4.2310    2.9940   19.4420 C   0  0  0  0  0  0  0  0  0  0  0  0
    4.6050    3.5110   18.1940 C   0  0  0  0  0  0  0  0  0  0  0  0
    3.6510    3.5450   17.1670 C   0  0  0  0  0  0  0  0  0  0  0  0
    2.3530    3.0790   17.3850 C   0  0  0  0  0  0  0  0  0  0  0  0
    2.6710    2.1260   20.6350 H   0  0  0  0  0  0  0  0  0  0  0  0
    4.9510    2.9580   20.2570 H   0  0  0  0  0  0  0  0  0  0  0  0
    3.9140    3.9390   16.1860 H   0  0  0  0  0  0  0  0  0  0  0  0
    1.6320    3.1170   16.5730 H   0  0  0  0  0  0  0  0  0  0  0  0
    0.5940    2.0530   18.8650 C   0  0  0  0  0  0  0  0  0  0  0  0
    0.4940    1.0560   18.4260 H   0  0  0  0  0  0  0  0  0  0  0  0
   -0.1550    2.7130   18.4160 H   0  0  0  0  0  0  0  0  0  0  0  0
    0.3740    1.9930   19.9370 H   0  0  0  0  0  0  0  0  0  0  0  0
  1 42  1  0  0  0  0
  1  6  1  0  0  0  0
  2  1  2  0  0  0  0
  3  2  1  0  0  0  0
  3  4  2  0  0  0  0
  4  5  1  0  0  0  0
  5  6  2  0  0  0  0
  5 10  1  0  0  0  0
  6  9  1  0  0  0  0
  7  2  1  0  0  0  0
  8  3  1  0  0  0  0
 10 11  1  0  0  0  0
 10 12  2  0  0  0  0
 11 14  1  0  0  0  0
 13 11  1  0  0  0  0
 15  4  1  0  0  0  0
 15 17  1  0  0  0  0
 15 18  1  0  0  0  0
 16 15  1  0  0  0  0
 18 19  1  0  0  0  0
 19 21  1  0  0  0  0
 20 19  2  0  0  0  0
 21 24  1  0  0  0  0
 21 23  1  0  0  0  0
 22 18  1  0  0  0  0
 24 33  1  6  0  0  0
 24 32  1  0  0  0  0
 25 24  1  0  0  0  0
 25 35  1  0  0  0  0
 25 26  1  0  0  0  0
 26 37  1  0  0  0  0
 26 27  1  0  0  0  0
 27 28  1  0  0  0  0
 28 38  1  0  0  0  0
 28 29  2  0  0  0  0
 29 39  1  0  0  0  0
 30 29  1  0  0  0  0
 30 40  1  0  0  0  0
 31 30  2  0  0  0  0
 32 27  2  0  0  0  0
 32 31  1  0  0  0  0
 34 25  1  0  0  0  0
 36 26  1  0  0  0  0
 41 31  1  0  0  0  0
 43 42  1  0  0  0  0
 43 46  1  0  0  0  0
 44 43  1  0  0  0  0
 45 43  1  0  0  0  0
 47 53  1  0  0  0  0
 47 42  1  0  0  0  0
 47 49  1  0  0  0  0
 48 47  1  0  0  0  0
 50 60  1  0  0  0  0
 50 51  1  0  0  0  0
 51 56  1  0  0  0  0
 52 51  2  0  0  0  0
 52 57  1  0  0  0  0
 53 52  1  0  0  0  0
 54 55  1  0  0  0  0
 54 53  2  0  0  0  0
 55 50  2  0  0  0  0
 58 54  1  0  0  0  0
 59 55  1  0  0  0  0
 60 63  1  0  0  0  0
 61 60  1  0  0  0  0
 62 60  1  0  0  0  0
M  END
>  <MODEL>
22

>  <REMARK>
 VINA RESULT:    -6.890      2.427      4.468
 INTER + INTRA:         -10.969
 INTER:                 -10.247
 INTRA:                  -0.722
 UNBOUND:                -0.856
  Name = 
  9 active torsions:
  status: ('A' for Active; 'I' for Inactive)
    1  A    between atoms: C_1  and  C_2
    2  A    between atoms: C_5  and  C_6
    3  A    between atoms: C_6  and  N_7
    4  A    between atoms: N_7  and  C_8
    5  A    between atoms: N_7  and  C_9
    6  A    between atoms: C_12  and  C_13
    7  A    between atoms: C_13  and  N_14
    8  A    between atoms: N_17  and  C_18
    9  A    between atoms: C_27  and  C_28
                            x       y       z     vdW  Elec       q    Type
                         _______ _______ _______ _____ _____    ______ ____

>  <TORSDO>
F 9

$$$$
=
 OpenBabel07192307433D

 63 66  0  0  1  0  0  0  0  0999 V2000
    1.6730   12.9170   19.7130 C   0  0  0  0  0  0  0  0  0  0  0  0
    2.0950   12.7320   18.3900 C   0  0  0  0  0  0  0  0  0  0  0  0
    2.0600   11.4770   17.7700 C   0  0  0  0  0  0  0  0  0  0  0  0
    1.6030   10.3450   18.4570 C   0  0  0  0  0  0  0  0  0  0  0  0
    1.2050   10.5000   19.7960 C   0  0  0  0  0  0  0  0  0  0  0  0
    1.2360   11.7740   20.3990 C   0  0  0  0  0  0  0  0  0  0  0  0
    2.4990   13.5670   17.8210 H   0  0  0  0  0  0  0  0  0  0  0  0
    2.4240   11.3880   16.7470 H   0  0  0  0  0  0  0  0  0  0  0  0
    0.8650   11.8710   21.4160 H   0  0  0  0  0  0  0  0  0  0  0  0
    0.7450    9.3370   20.6070 C   0  0  0  0  0  0  0  0  0  0  0  0
   -0.5920    9.2780   20.8870 N   0  0  0  0  0  0  0  0  0  0  0  0
    1.5060    8.4810   21.0370 O   0  0  0  0  0  0  0  0  0  0  0  0
   -1.2130   10.0610   20.7340 H   0  0  0  0  0  0  0  0  0  0  0  0
   -0.8980    8.5310   21.4950 H   0  0  0  0  0  0  0  0  0  0  0  0
    1.6170    9.0130   17.7510 C   0  0  0  0  0  0  0  0  0  0  0  0
    0.7100    8.4430   17.9750 H   0  0  0  0  0  0  0  0  0  0  0  0
    1.6260    9.1460   16.6610 H   0  0  0  0  0  0  0  0  0  0  0  0
    2.7660    8.2280   18.1390 N   0  0  0  0  0  0  0  0  0  0  0  0
    2.6940    6.8700   18.2570 C   0  0  0  0  0  0  0  0  0  0  0  0
    1.6850    6.2100   18.0550 O   0  0  0  0  0  0  0  0  0  0  0  0
    3.9110    6.3410   18.6040 N   0  0  0  0  0  0  0  0  0  0  0  0
    3.4650    8.7030   18.6970 H   0  0  0  0  0  0  0  0  0  0  0  0
    4.6870    6.8780   18.2540 H   0  0  0  0  0  0  0  0  0  0  0  0
    4.0730    4.9050   18.6100 C   0  0  2  0  0  0  0  0  0  0  0  0
    3.7060    4.2650   17.2530 C   0  0  0  0  0  0  0  0  0  0  0  0
    3.2360    2.8400   17.5640 C   0  0  0  0  0  0  0  0  0  0  0  0
    2.6440    3.0150   18.9270 C   0  0  0  0  0  0  0  0  0  0  0  0
    1.8030    2.1480   19.6030 C   0  0  0  0  0  0  0  0  0  0  0  0
    1.4150    2.4770   20.9030 C   0  0  0  0  0  0  0  0  0  0  0  0
    1.8840    3.6510   21.5110 C   0  0  0  0  0  0  0  0  0  0  0  0
    2.7460    4.5140   20.8290 C   0  0  0  0  0  0  0  0  0  0  0  0
    3.1130    4.1920   19.5290 C   0  0  0  0  0  0  0  0  0  0  0  0
    5.1020    4.6500   18.8950 H   0  0  0  0  0  0  0  0  0  0  0  0
    4.5420    4.2780   16.5450 H   0  0  0  0  0  0  0  0  0  0  0  0
    2.8830    4.8200   16.7840 H   0  0  0  0  0  0  0  0  0  0  0  0
    4.0840    2.1480   17.6080 H   0  0  0  0  0  0  0  0  0  0  0  0
    2.5050    2.4880   16.8330 H   0  0  0  0  0  0  0  0  0  0  0  0
    1.4540    1.2300   19.1380 H   0  0  0  0  0  0  0  0  0  0  0  0
    0.7550    1.8100   21.4520 H   0  0  0  0  0  0  0  0  0  0  0  0
    1.5830    3.8830   22.5300 H   0  0  0  0  0  0  0  0  0  0  0  0
    3.1240    5.4040   21.3200 H   0  0  0  0  0  0  0  0  0  0  0  0
    1.7250   14.1840   20.3020 N   0  0  0  0  0  0  0  0  0  0  0  0
    2.6660   14.4180   21.3960 C   0  0  0  0  0  0  0  0  0  0  0  0
    2.1380   14.7340   22.3030 H   0  0  0  0  0  0  0  0  0  0  0  0
    3.4160   15.1740   21.1320 H   0  0  0  0  0  0  0  0  0  0  0  0
    3.1970   13.4900   21.6460 H   0  0  0  0  0  0  0  0  0  0  0  0
    0.4710   14.9570   20.3590 C   0  0  0  0  0  0  0  0  0  0  0  0
    0.6880   15.9590   20.7520 H   0  0  0  0  0  0  0  0  0  0  0  0
    0.0480   15.1450   19.3660 H   0  0  0  0  0  0  0  0  0  0  0  0
   -2.4950   13.0340   22.8700 C   0  0  0  0  0  0  0  0  0  0  0  0
   -2.6530   13.0630   21.4800 C   0  0  0  0  0  0  0  0  0  0  0  0
   -1.6990   13.6860   20.6710 C   0  0  0  0  0  0  0  0  0  0  0  0
   -0.5760   14.3040   21.2380 C   0  0  0  0  0  0  0  0  0  0  0  0
   -0.4310   14.2870   22.6330 C   0  0  0  0  0  0  0  0  0  0  0  0
   -1.3840   13.6620   23.4400 C   0  0  0  0  0  0  0  0  0  0  0  0
   -3.5160   12.5940   21.0140 H   0  0  0  0  0  0  0  0  0  0  0  0
   -1.8340   13.6820   19.5920 H   0  0  0  0  0  0  0  0  0  0  0  0
    0.4300   14.7620   23.1010 H   0  0  0  0  0  0  0  0  0  0  0  0
   -1.2480   13.6620   24.5180 H   0  0  0  0  0  0  0  0  0  0  0  0
   -3.5320   12.3830   23.7360 C   0  0  0  0  0  0  0  0  0  0  0  0
   -3.4560   11.2940   23.6550 H   0  0  0  0  0  0  0  0  0  0  0  0
   -4.5400   12.6890   23.4390 H   0  0  0  0  0  0  0  0  0  0  0  0
   -3.3990   12.6720   24.7840 H   0  0  0  0  0  0  0  0  0  0  0  0
  1 42  1  0  0  0  0
  1  6  1  0  0  0  0
  2  1  2  0  0  0  0
  3  2  1  0  0  0  0
  3  4  2  0  0  0  0
  4  5  1  0  0  0  0
  5  6  2  0  0  0  0
  5 10  1  0  0  0  0
  6  9  1  0  0  0  0
  7  2  1  0  0  0  0
  8  3  1  0  0  0  0
 10 11  1  0  0  0  0
 10 12  2  0  0  0  0
 11 14  1  0  0  0  0
 13 11  1  0  0  0  0
 15 16  1  0  0  0  0
 15 18  1  0  0  0  0
 15  4  1  0  0  0  0
 17 15  1  0  0  0  0
 18 19  1  0  0  0  0
 18 22  1  0  0  0  0
 19 21  1  0  0  0  0
 20 19  2  0  0  0  0
 21 24  1  0  0  0  0
 23 21  1  0  0  0  0
 24 33  1  1  0  0  0
 24 32  1  0  0  0  0
 25 26  1  0  0  0  0
 25 24  1  0  0  0  0
 26 36  1  0  0  0  0
 26 27  1  0  0  0  0
 27 32  2  0  0  0  0
 27 28  1  0  0  0  0
 28 29  2  0  0  0  0
 29 39  1  0  0  0  0
 29 30  1  0  0  0  0
 30 40  1  0  0  0  0
 31 41  1  0  0  0  0
 31 30  2  0  0  0  0
 32 31  1  0  0  0  0
 34 25  1  0  0  0  0
 35 25  1  0  0  0  0
 37 26  1  0  0  0  0
 38 28  1  0  0  0  0
 42 47  1  0  0  0  0
 42 43  1  0  0  0  0
 43 46  1  0  0  0  0
 43 44  1  0  0  0  0
 45 43  1  0  0  0  0
 47 48  1  0  0  0  0
 47 53  1  0  0  0  0
 49 47  1  0  0  0  0
 50 55  1  0  0  0  0
 50 60  1  0  0  0  0
 51 50  2  0  0  0  0
 52 53  2  0  0  0  0
 52 51  1  0  0  0  0
 53 54  1  0  0  0  0
 54 58  1  0  0  0  0
 54 55  2  0  0  0  0
 55 59  1  0  0  0  0
 56 51  1  0  0  0  0
 57 52  1  0  0  0  0
 60 63  1  0  0  0  0
 61 60  1  0  0  0  0
 62 60  1  0  0  0  0
M  END
>  <MODEL>
23

>  <REMARK>
 VINA RESULT:    -6.754      2.641      9.409
 INTER + INTRA:         -10.769
 INTER:                 -10.471
 INTRA:                  -0.298
 UNBOUND:                -0.856
  Name = 
  9 active torsions:
  status: ('A' for Active; 'I' for Inactive)
    1  A    between atoms: C_1  and  C_2
    2  A    between atoms: C_5  and  C_6
    3  A    between atoms: C_6  and  N_7
    4  A    between atoms: N_7  and  C_8
    5  A    between atoms: N_7  and  C_9
    6  A    between atoms: C_12  and  C_13
    7  A    between atoms: C_13  and  N_14
    8  A    between atoms: N_17  and  C_18
    9  A    between atoms: C_27  and  C_28
                            x       y       z     vdW  Elec       q    Type
                         _______ _______ _______ _____ _____    ______ ____

>  <TORSDO>
F 9

$$$$
=
 OpenBabel07192307433D

 63 66  0  0  1  0  0  0  0  0999 V2000
    1.0680   12.8930   20.5040 C   0  0  0  0  0  0  0  0  0  0  0  0
    1.0910   12.8540   19.1040 C   0  0  0  0  0  0  0  0  0  0  0  0
    0.9360   11.6580   18.3930 C   0  0  0  0  0  0  0  0  0  0  0  0
    0.7560   10.4390   19.0600 C   0  0  0  0  0  0  0  0  0  0  0  0
    0.7630   10.4490   20.4660 C   0  0  0  0  0  0  0  0  0  0  0  0
    0.9080   11.6640   21.1640 C   0  0  0  0  0  0  0  0  0  0  0  0
    1.2690   13.7630   18.5330 H   0  0  0  0  0  0  0  0  0  0  0  0
    0.9870   11.6840   17.3060 H   0  0  0  0  0  0  0  0  0  0  0  0
    0.8480   11.6450   22.2490 H   0  0  0  0  0  0  0  0  0  0  0  0
    0.6180    9.1880   21.2500 C   0  0  0  0  0  0  0  0  0  0  0  0
    1.7760    8.5480   21.5970 N   0  0  0  0  0  0  0  0  0  0  0  0
   -0.4670    8.7130   21.5550 O   0  0  0  0  0  0  0  0  0  0  0  0
    2.6700    8.7890   21.1920 H   0  0  0  0  0  0  0  0  0  0  0  0
    1.6820    7.6580   22.0660 H   0  0  0  0  0  0  0  0  0  0  0  0
    0.6260    9.1770   18.2460 C   0  0  0  0  0  0  0  0  0  0  0  0
    0.1240    8.3920   18.8200 H   0  0  0  0  0  0  0  0  0  0  0  0
    0.0020    9.3460   17.3580 H   0  0  0  0  0  0  0  0  0  0  0  0
    1.9200    8.6910   17.8260 N   0  0  0  0  0  0  0  0  0  0  0  0
    2.4090    7.4960   18.2690 C   0  0  0  0  0  0  0  0  0  0  0  0
    1.8210    6.7490   19.0380 O   0  0  0  0  0  0  0  0  0  0  0  0
    3.6350    7.2300   17.7140 N   0  0  0  0  0  0  0  0  0  0  0  0
    2.5960    9.3940   17.5540 H   0  0  0  0  0  0  0  0  0  0  0  0
    3.7450    7.6260   16.7950 H   0  0  0  0  0  0  0  0  0  0  0  0
    4.2340    5.9320   17.9310 C   0  0  2  0  0  0  0  0  0  0  0  0
    5.1280    5.8990   19.1890 C   0  0  0  0  0  0  0  0  0  0  0  0
    6.1920    4.8270   18.9320 C   0  0  0  0  0  0  0  0  0  0  0  0
    6.3370    4.9070   17.4440 C   0  0  0  0  0  0  0  0  0  0  0  0
    7.3570    4.3890   16.6640 C   0  0  0  0  0  0  0  0  0  0  0  0
    7.2640    4.5220   15.2770 C   0  0  0  0  0  0  0  0  0  0  0  0
    6.1540    5.1500   14.6940 C   0  0  0  0  0  0  0  0  0  0  0  0
    5.1220    5.6560   15.4870 C   0  0  0  0  0  0  0  0  0  0  0  0
    5.2270    5.5400   16.8660 C   0  0  0  0  0  0  0  0  0  0  0  0
    3.4480    5.1680   17.9910 H   0  0  0  0  0  0  0  0  0  0  0  0
    4.5570    5.7020   20.1030 H   0  0  0  0  0  0  0  0  0  0  0  0
    5.6230    6.8700   19.3270 H   0  0  0  0  0  0  0  0  0  0  0  0
    5.8280    3.8350   19.2210 H   0  0  0  0  0  0  0  0  0  0  0  0
    7.1240    5.0500   19.4550 H   0  0  0  0  0  0  0  0  0  0  0  0
    8.2080    3.8870   17.1160 H   0  0  0  0  0  0  0  0  0  0  0  0
    8.0540    4.1220   14.6460 H   0  0  0  0  0  0  0  0  0  0  0  0
    6.0930    5.2310   13.6110 H   0  0  0  0  0  0  0  0  0  0  0  0
    4.2550    6.1150   15.0220 H   0  0  0  0  0  0  0  0  0  0  0  0
    1.2310   14.1040   21.1820 N   0  0  0  0  0  0  0  0  0  0  0  0
    2.5570   14.7150   21.2340 C   0  0  0  0  0  0  0  0  0  0  0  0
    3.2900   14.1020   20.6990 H   0  0  0  0  0  0  0  0  0  0  0  0
    2.8960   14.8660   22.2670 H   0  0  0  0  0  0  0  0  0  0  0  0
    2.5440   15.6960   20.7390 H   0  0  0  0  0  0  0  0  0  0  0  0
    0.3670   14.3460   22.3530 C   0  0  0  0  0  0  0  0  0  0  0  0
    0.7680   13.7920   23.2110 H   0  0  0  0  0  0  0  0  0  0  0  0
    0.3830   15.3920   22.6780 H   0  0  0  0  0  0  0  0  0  0  0  0
   -3.7130   13.0610   21.6430 C   0  0  0  0  0  0  0  0  0  0  0  0
   -3.1080   14.0010   20.8020 C   0  0  0  0  0  0  0  0  0  0  0  0
   -1.7950   14.4180   21.0330 C   0  0  0  0  0  0  0  0  0  0  0  0
   -1.0650   13.9130   22.1180 C   0  0  0  0  0  0  0  0  0  0  0  0
   -1.6810   12.9830   22.9680 C   0  0  0  0  0  0  0  0  0  0  0  0
   -2.9930   12.5650   22.7350 C   0  0  0  0  0  0  0  0  0  0  0  0
   -3.6520   14.4120   19.9550 H   0  0  0  0  0  0  0  0  0  0  0  0
   -1.3400   15.1380   20.3560 H   0  0  0  0  0  0  0  0  0  0  0  0
   -1.1400   12.5760   23.8210 H   0  0  0  0  0  0  0  0  0  0  0  0
   -3.4480   11.8440   23.4080 H   0  0  0  0  0  0  0  0  0  0  0  0
   -5.1290   12.6320   21.4050 C   0  0  0  0  0  0  0  0  0  0  0  0
   -5.3180   12.5470   20.3300 H   0  0  0  0  0  0  0  0  0  0  0  0
   -5.8350   13.3530   21.8300 H   0  0  0  0  0  0  0  0  0  0  0  0
   -5.3270   11.6650   21.8780 H   0  0  0  0  0  0  0  0  0  0  0  0
  1  6  1  0  0  0  0
  1 42  1  0  0  0  0
  2  1  2  0  0  0  0
  3  4  2  0  0  0  0
  3  2  1  0  0  0  0
  4  5  1  0  0  0  0
  5  6  2  0  0  0  0
  5 10  1  0  0  0  0
  6  9  1  0  0  0  0
  7  2  1  0  0  0  0
  8  3  1  0  0  0  0
 10 12  2  0  0  0  0
 10 11  1  0  0  0  0
 11 14  1  0  0  0  0
 13 11  1  0  0  0  0
 15 16  1  0  0  0  0
 15  4  1  0  0  0  0
 17 15  1  0  0  0  0
 18 15  1  0  0  0  0
 18 19  1  0  0  0  0
 19 20  2  0  0  0  0
 21 24  1  0  0  0  0
 21 19  1  0  0  0  0
 22 18  1  0  0  0  0
 23 21  1  0  0  0  0
 24 33  1  1  0  0  0
 24 25  1  0  0  0  0
 25 35  1  0  0  0  0
 25 34  1  0  0  0  0
 26 25  1  0  0  0  0
 26 36  1  0  0  0  0
 26 37  1  0  0  0  0
 27 26  1  0  0  0  0
 28 38  1  0  0  0  0
 28 27  2  0  0  0  0
 29 28  1  0  0  0  0
 30 29  2  0  0  0  0
 30 31  1  0  0  0  0
 31 32  2  0  0  0  0
 32 27  1  0  0  0  0
 32 24  1  0  0  0  0
 39 29  1  0  0  0  0
 40 30  1  0  0  0  0
 41 31  1  0  0  0  0
 42 43  1  0  0  0  0
 42 47  1  0  0  0  0
 43 45  1  0  0  0  0
 44 43  1  0  0  0  0
 46 43  1  0  0  0  0
 47 49  1  0  0  0  0
 47 48  1  0  0  0  0
 50 55  1  0  0  0  0
 51 52  1  0  0  0  0
 51 50  2  0  0  0  0
 52 53  2  0  0  0  0
 53 47  1  0  0  0  0
 53 54  1  0  0  0  0
 54 58  1  0  0  0  0
 55 54  2  0  0  0  0
 55 59  1  0  0  0  0
 56 51  1  0  0  0  0
 57 52  1  0  0  0  0
 60 50  1  0  0  0  0
 60 62  1  0  0  0  0
 60 63  1  0  0  0  0
 61 60  1  0  0  0  0
M  END
>  <MODEL>
24

>  <REMARK>
 VINA RESULT:    -6.750      2.797      9.786
 INTER + INTRA:         -10.763
 INTER:                  -9.537
 INTRA:                  -1.225
 UNBOUND:                -0.856
  Name = 
  9 active torsions:
  status: ('A' for Active; 'I' for Inactive)
    1  A    between atoms: C_1  and  C_2
    2  A    between atoms: C_5  and  C_6
    3  A    between atoms: C_6  and  N_7
    4  A    between atoms: N_7  and  C_8
    5  A    between atoms: N_7  and  C_9
    6  A    between atoms: C_12  and  C_13
    7  A    between atoms: C_13  and  N_14
    8  A    between atoms: N_17  and  C_18
    9  A    between atoms: C_27  and  C_28
                            x       y       z     vdW  Elec       q    Type
                         _______ _______ _______ _____ _____    ______ ____

>  <TORSDO>
F 9

$$$$
=
 OpenBabel07192307433D

 63 66  0  0  1  0  0  0  0  0999 V2000
    2.2110    6.2660   18.8130 C   0  0  0  0  0  0  0  0  0  0  0  0
    1.9900    6.1800   20.1940 C   0  0  0  0  0  0  0  0  0  0  0  0
    1.5710    7.2830   20.9470 C   0  0  0  0  0  0  0  0  0  0  0  0
    1.3590    8.5300   20.3450 C   0  0  0  0  0  0  0  0  0  0  0  0
    1.6060    8.6490   18.9660 C   0  0  0  0  0  0  0  0  0  0  0  0
    2.0160    7.5240   18.2220 C   0  0  0  0  0  0  0  0  0  0  0  0
    2.1790    5.2470   20.7220 H   0  0  0  0  0  0  0  0  0  0  0  0
    1.4380    7.1640   22.0210 H   0  0  0  0  0  0  0  0  0  0  0  0
    2.1410    7.6350   17.1490 H   0  0  0  0  0  0  0  0  0  0  0  0
    1.4440    9.9520   18.2590 C   0  0  0  0  0  0  0  0  0  0  0  0
    0.2090   10.2110   17.7320 N   0  0  0  0  0  0  0  0  0  0  0  0
    2.3570   10.7530   18.1190 O   0  0  0  0  0  0  0  0  0  0  0  0
   -0.5030    9.4990   17.6430 H   0  0  0  0  0  0  0  0  0  0  0  0
    0.1130   11.0600   17.1920 H   0  0  0  0  0  0  0  0  0  0  0  0
    0.9380    9.6910   21.2090 C   0  0  0  0  0  0  0  0  0  0  0  0
    0.9610    9.4180   22.2690 H   0  0  0  0  0  0  0  0  0  0  0  0
    1.6340   10.5340   21.1010 H   0  0  0  0  0  0  0  0  0  0  0  0
   -0.3950   10.1360   20.8730 N   0  0  0  0  0  0  0  0  0  0  0  0
   -0.8370   11.3820   21.2120 C   0  0  0  0  0  0  0  0  0  0  0  0
   -0.1720   12.2130   21.8140 O   0  0  0  0  0  0  0  0  0  0  0  0
   -2.1160   11.5890   20.7630 N   0  0  0  0  0  0  0  0  0  0  0  0
   -1.0940    9.4110   20.7670 H   0  0  0  0  0  0  0  0  0  0  0  0
   -2.3230   11.0830   19.9180 H   0  0  0  0  0  0  0  0  0  0  0  0
   -2.6920   12.9100   20.8780 C   0  0  2  0  0  0  0  0  0  0  0  0
   -1.6950   14.0240   20.4910 C   0  0  0  0  0  0  0  0  0  0  0  0
   -2.1100   15.2670   21.2850 C   0  0  0  0  0  0  0  0  0  0  0  0
   -2.6910   14.6490   22.5180 C   0  0  0  0  0  0  0  0  0  0  0  0
   -2.9640   15.2670   23.7260 C   0  0  0  0  0  0  0  0  0  0  0  0
   -3.5700   14.5150   24.7340 C   0  0  0  0  0  0  0  0  0  0  0  0
   -3.9070   13.1710   24.5160 C   0  0  0  0  0  0  0  0  0  0  0  0
   -3.6420   12.5580   23.2890 C   0  0  0  0  0  0  0  0  0  0  0  0
   -3.0210   13.3040   22.2960 C   0  0  0  0  0  0  0  0  0  0  0  0
   -3.6010   12.9710   20.2660 H   0  0  0  0  0  0  0  0  0  0  0  0
   -1.6760   14.2110   19.4110 H   0  0  0  0  0  0  0  0  0  0  0  0
   -0.6750   13.7360   20.7820 H   0  0  0  0  0  0  0  0  0  0  0  0
   -2.8790   15.8350   20.7510 H   0  0  0  0  0  0  0  0  0  0  0  0
   -1.2550   15.9100   21.5020 H   0  0  0  0  0  0  0  0  0  0  0  0
   -2.7200   16.3130   23.8880 H   0  0  0  0  0  0  0  0  0  0  0  0
   -3.7950   14.9800   25.6910 H   0  0  0  0  0  0  0  0  0  0  0  0
   -4.3920   12.6050   25.3090 H   0  0  0  0  0  0  0  0  0  0  0  0
   -3.9330   11.5260   23.1230 H   0  0  0  0  0  0  0  0  0  0  0  0
    2.6340    5.1450   18.0920 N   0  0  0  0  0  0  0  0  0  0  0  0
    1.6650    4.0970   17.7790 C   0  0  0  0  0  0  0  0  0  0  0  0
    1.2800    4.2140   16.7600 H   0  0  0  0  0  0  0  0  0  0  0  0
    0.8260    4.0940   18.4850 H   0  0  0  0  0  0  0  0  0  0  0  0
    2.1460    3.1100   17.8240 H   0  0  0  0  0  0  0  0  0  0  0  0
    4.0240    4.6950   18.2930 C   0  0  0  0  0  0  0  0  0  0  0  0
    4.5000    5.3370   19.0450 H   0  0  0  0  0  0  0  0  0  0  0  0
    4.0810    3.6900   18.7240 H   0  0  0  0  0  0  0  0  0  0  0  0
    6.3140    4.8270   14.6140 C   0  0  0  0  0  0  0  0  0  0  0  0
    6.1630    3.6240   15.3130 C   0  0  0  0  0  0  0  0  0  0  0  0
    5.4270    3.5830   16.5000 C   0  0  0  0  0  0  0  0  0  0  0  0
    4.8420    4.7460   17.0190 C   0  0  0  0  0  0  0  0  0  0  0  0
    5.0110    5.9520   16.3240 C   0  0  0  0  0  0  0  0  0  0  0  0
    5.7440    5.9920   15.1360 C   0  0  0  0  0  0  0  0  0  0  0  0
    6.6090    2.7080   14.9350 H   0  0  0  0  0  0  0  0  0  0  0  0
    5.3090    2.6330   17.0180 H   0  0  0  0  0  0  0  0  0  0  0  0
    4.5700    6.8720   16.7050 H   0  0  0  0  0  0  0  0  0  0  0  0
    5.8600    6.9380   14.6150 H   0  0  0  0  0  0  0  0  0  0  0  0
    7.1220    4.8710   13.3520 C   0  0  0  0  0  0  0  0  0  0  0  0
    6.5940    5.4550   12.5910 H   0  0  0  0  0  0  0  0  0  0  0  0
    7.2990    3.8630   12.9630 H   0  0  0  0  0  0  0  0  0  0  0  0
    8.1010    5.3270   13.5330 H   0  0  0  0  0  0  0  0  0  0  0  0
  1  2  1  0  0  0  0
  2  7  1  0  0  0  0
  2  3  2  0  0  0  0
  3  8  1  0  0  0  0
  4  3  1  0  0  0  0
  4 15  1  0  0  0  0
  5  4  2  0  0  0  0
  6  1  2  0  0  0  0
  6  5  1  0  0  0  0
  9  6  1  0  0  0  0
 10  5  1  0  0  0  0
 11 10  1  0  0  0  0
 12 10  2  0  0  0  0
 13 11  1  0  0  0  0
 14 11  1  0  0  0  0
 15 16  1  0  0  0  0
 17 15  1  0  0  0  0
 18 15  1  0  0  0  0
 18 19  1  0  0  0  0
 19 20  2  0  0  0  0
 21 24  1  0  0  0  0
 21 19  1  0  0  0  0
 22 18  1  0  0  0  0
 23 21  1  0  0  0  0
 24 33  1  6  0  0  0
 24 32  1  0  0  0  0
 25 35  1  0  0  0  0
 25 24  1  0  0  0  0
 25 26  1  0  0  0  0
 26 37  1  0  0  0  0
 26 27  1  0  0  0  0
 27 28  1  0  0  0  0
 28 38  1  0  0  0  0
 28 29  2  0  0  0  0
 29 39  1  0  0  0  0
 30 29  1  0  0  0  0
 30 40  1  0  0  0  0
 31 30  2  0  0  0  0
 32 27  2  0  0  0  0
 32 31  1  0  0  0  0
 34 25  1  0  0  0  0
 36 26  1  0  0  0  0
 41 31  1  0  0  0  0
 42 47  1  0  0  0  0
 42  1  1  0  0  0  0
 43 46  1  0  0  0  0
 43 42  1  0  0  0  0
 43 45  1  0  0  0  0
 44 43  1  0  0  0  0
 47 49  1  0  0  0  0
 47 48  1  0  0  0  0
 50 55  2  0  0  0  0
 50 51  1  0  0  0  0
 51 52  2  0  0  0  0
 52 57  1  0  0  0  0
 52 53  1  0  0  0  0
 53 47  1  0  0  0  0
 54 58  1  0  0  0  0
 54 53  2  0  0  0  0
 55 54  1  0  0  0  0
 56 51  1  0  0  0  0
 59 55  1  0  0  0  0
 60 63  1  0  0  0  0
 60 50  1  0  0  0  0
 61 60  1  0  0  0  0
 62 60  1  0  0  0  0
M  END
>  <MODEL>
25

>  <REMARK>
 VINA RESULT:    -6.727      2.329      3.846
 INTER + INTRA:         -10.729
 INTER:                 -10.591
 INTRA:                  -0.137
 UNBOUND:                -0.856
  Name = 
  9 active torsions:
  status: ('A' for Active; 'I' for Inactive)
    1  A    between atoms: C_1  and  C_2
    2  A    between atoms: C_5  and  C_6
    3  A    between atoms: C_6  and  N_7
    4  A    between atoms: N_7  and  C_8
    5  A    between atoms: N_7  and  C_9
    6  A    between atoms: C_12  and  C_13
    7  A    between atoms: C_13  and  N_14
    8  A    between atoms: N_17  and  C_18
    9  A    between atoms: C_27  and  C_28
                            x       y       z     vdW  Elec       q    Type
                         _______ _______ _______ _____ _____    ______ ____

>  <TORSDO>
F 9

$$$$
=
 OpenBabel07192307433D

 63 66  0  0  1  0  0  0  0  0999 V2000
   -0.3140   10.7450   21.0960 C   0  0  0  0  0  0  0  0  0  0  0  0
   -0.3710    9.7100   22.0390 C   0  0  0  0  0  0  0  0  0  0  0  0
    0.2100    8.4590   21.8030 C   0  0  0  0  0  0  0  0  0  0  0  0
    0.8740    8.1870   20.5990 C   0  0  0  0  0  0  0  0  0  0  0  0
    0.9160    9.1990   19.6250 C   0  0  0  0  0  0  0  0  0  0  0  0
    0.3360   10.4570   19.8860 C   0  0  0  0  0  0  0  0  0  0  0  0
   -0.9100    9.8500   22.9740 H   0  0  0  0  0  0  0  0  0  0  0  0
    0.1130    7.6840   22.5620 H   0  0  0  0  0  0  0  0  0  0  0  0
    0.4380   11.2360   19.1360 H   0  0  0  0  0  0  0  0  0  0  0  0
    1.5690    8.9740   18.3030 C   0  0  0  0  0  0  0  0  0  0  0  0
    2.1140   10.0720   17.6960 N   0  0  0  0  0  0  0  0  0  0  0  0
    1.6030    7.8820   17.7530 O   0  0  0  0  0  0  0  0  0  0  0  0
    1.9270   11.0140   18.0110 H   0  0  0  0  0  0  0  0  0  0  0  0
    2.4950    9.9390   16.7690 H   0  0  0  0  0  0  0  0  0  0  0  0
    1.4550    6.8120   20.3850 C   0  0  0  0  0  0  0  0  0  0  0  0
    1.3600    6.2030   21.2900 H   0  0  0  0  0  0  0  0  0  0  0  0
    0.9070    6.2720   19.6020 H   0  0  0  0  0  0  0  0  0  0  0  0
    2.8510    6.8860   20.0190 N   0  0  0  0  0  0  0  0  0  0  0  0
    3.5780    5.7620   19.7540 C   0  0  0  0  0  0  0  0  0  0  0  0
    3.1340    4.6230   19.8020 O   0  0  0  0  0  0  0  0  0  0  0  0
    4.8630    6.0800   19.3990 N   0  0  0  0  0  0  0  0  0  0  0  0
    3.3580    7.6960   20.3520 H   0  0  0  0  0  0  0  0  0  0  0  0
    4.9340    6.9690   18.9340 H   0  0  0  0  0  0  0  0  0  0  0  0
    5.7350    5.0320   18.9180 C   0  0  2  0  0  0  0  0  0  0  0  0
    7.2270    5.3490   19.1590 C   0  0  0  0  0  0  0  0  0  0  0  0
    8.0050    4.6180   18.0600 C   0  0  0  0  0  0  0  0  0  0  0  0
    7.0130    4.6320   16.9390 C   0  0  0  0  0  0  0  0  0  0  0  0
    7.2480    4.3800   15.5980 C   0  0  0  0  0  0  0  0  0  0  0  0
    6.1610    4.3820   14.7220 C   0  0  0  0  0  0  0  0  0  0  0  0
    4.8620    4.6170   15.1970 C   0  0  0  0  0  0  0  0  0  0  0  0
    4.6310    4.8550   16.5540 C   0  0  0  0  0  0  0  0  0  0  0  0
    5.7170    4.8710   17.4190 C   0  0  0  0  0  0  0  0  0  0  0  0
    5.4590    4.0780   19.3870 H   0  0  0  0  0  0  0  0  0  0  0  0
    7.5600    5.0580   20.1620 H   0  0  0  0  0  0  0  0  0  0  0  0
    7.4030    6.4290   19.0660 H   0  0  0  0  0  0  0  0  0  0  0  0
    8.2250    3.5870   18.3540 H   0  0  0  0  0  0  0  0  0  0  0  0
    8.9300    5.1390   17.8060 H   0  0  0  0  0  0  0  0  0  0  0  0
    8.2510    4.1810   15.2330 H   0  0  0  0  0  0  0  0  0  0  0  0
    6.3220    4.1870   13.6640 H   0  0  0  0  0  0  0  0  0  0  0  0
    4.0260    4.6000   14.5020 H   0  0  0  0  0  0  0  0  0  0  0  0
    3.6190    5.0070   16.9150 H   0  0  0  0  0  0  0  0  0  0  0  0
   -0.9090   11.9810   21.3630 N   0  0  0  0  0  0  0  0  0  0  0  0
   -2.0450   12.4110   20.5510 C   0  0  0  0  0  0  0  0  0  0  0  0
   -2.5560   11.5490   20.1070 H   0  0  0  0  0  0  0  0  0  0  0  0
   -1.7380   13.0990   19.7540 H   0  0  0  0  0  0  0  0  0  0  0  0
   -2.7850   12.9290   21.1760 H   0  0  0  0  0  0  0  0  0  0  0  0
   -0.0370   13.0590   21.8660 C   0  0  0  0  0  0  0  0  0  0  0  0
   -0.6640   13.8570   22.2850 H   0  0  0  0  0  0  0  0  0  0  0  0
    0.5850   12.7370   22.7090 H   0  0  0  0  0  0  0  0  0  0  0  0
    2.4780   14.6900   18.7340 C   0  0  0  0  0  0  0  0  0  0  0  0
    3.0330   13.9150   19.7570 C   0  0  0  0  0  0  0  0  0  0  0  0
    2.2230   13.3920   20.7690 C   0  0  0  0  0  0  0  0  0  0  0  0
    0.8440   13.6470   20.7830 C   0  0  0  0  0  0  0  0  0  0  0  0
    0.2960   14.4390   19.7650 C   0  0  0  0  0  0  0  0  0  0  0  0
    1.1060   14.9580   18.7530 C   0  0  0  0  0  0  0  0  0  0  0  0
    4.0990   13.7040   19.7720 H   0  0  0  0  0  0  0  0  0  0  0  0
    2.6730   12.7780   21.5450 H   0  0  0  0  0  0  0  0  0  0  0  0
   -0.7710   14.6560   19.7520 H   0  0  0  0  0  0  0  0  0  0  0  0
    0.6570   15.5680   17.9740 H   0  0  0  0  0  0  0  0  0  0  0  0
    3.3540   15.2670   17.6620 C   0  0  0  0  0  0  0  0  0  0  0  0
    4.2580   15.6940   18.1080 H   0  0  0  0  0  0  0  0  0  0  0  0
    2.8300   16.0520   17.1070 H   0  0  0  0  0  0  0  0  0  0  0  0
    3.6430   14.4960   16.9400 H   0  0  0  0  0  0  0  0  0  0  0  0
  1 42  1  0  0  0  0
  1  2  1  0  0  0  0
  2  7  1  0  0  0  0
  3  2  2  0  0  0  0
  3  8  1  0  0  0  0
  4  3  1  0  0  0  0
  5  6  1  0  0  0  0
  5  4  2  0  0  0  0
  6  1  2  0  0  0  0
  9  6  1  0  0  0  0
 10  5  1  0  0  0  0
 11 13  1  0  0  0  0
 11 10  1  0  0  0  0
 12 10  2  0  0  0  0
 14 11  1  0  0  0  0
 15  4  1  0  0  0  0
 15 16  1  0  0  0  0
 17 15  1  0  0  0  0
 18 22  1  0  0  0  0
 18 15  1  0  0  0  0
 19 20  2  0  0  0  0
 19 18  1  0  0  0  0
 21 19  1  0  0  0  0
 23 21  1  0  0  0  0
 24 25  1  0  0  0  0
 24 33  1  1  0  0  0
 24 21  1  0  0  0  0
 25 34  1  0  0  0  0
 26 36  1  0  0  0  0
 26 25  1  0  0  0  0
 27 32  1  0  0  0  0
 27 26  1  0  0  0  0
 28 27  2  0  0  0  0
 29 30  2  0  0  0  0
 29 28  1  0  0  0  0
 30 31  1  0  0  0  0
 31 41  1  0  0  0  0
 31 32  2  0  0  0  0
 32 24  1  0  0  0  0
 35 25  1  0  0  0  0
 37 26  1  0  0  0  0
 38 28  1  0  0  0  0
 39 29  1  0  0  0  0
 40 30  1  0  0  0  0
 42 47  1  0  0  0  0
 43 46  1  0  0  0  0
 43 42  1  0  0  0  0
 44 43  1  0  0  0  0
 45 43  1  0  0  0  0
 47 48  1  0  0  0  0
 47 49  1  0  0  0  0
 50 55  2  0  0  0  0
 50 51  1  0  0  0  0
 51 56  1  0  0  0  0
 51 52  2  0  0  0  0
 52 53  1  0  0  0  0
 52 57  1  0  0  0  0
 53 47  1  0  0  0  0
 54 53  2  0  0  0  0
 55 54  1  0  0  0  0
 58 54  1  0  0  0  0
 59 55  1  0  0  0  0
 60 61  1  0  0  0  0
 60 50  1  0  0  0  0
 62 60  1  0  0  0  0
 63 60  1  0  0  0  0
M  END
>  <MODEL>
26

>  <REMARK>
 VINA RESULT:    -6.708      2.817      8.892
 INTER + INTRA:         -10.702
 INTER:                 -10.558
 INTRA:                  -0.144
 UNBOUND:                -0.856
  Name = 
  9 active torsions:
  status: ('A' for Active; 'I' for Inactive)
    1  A    between atoms: C_1  and  C_2
    2  A    between atoms: C_5  and  C_6
    3  A    between atoms: C_6  and  N_7
    4  A    between atoms: N_7  and  C_8
    5  A    between atoms: N_7  and  C_9
    6  A    between atoms: C_12  and  C_13
    7  A    between atoms: C_13  and  N_14
    8  A    between atoms: N_17  and  C_18
    9  A    between atoms: C_27  and  C_28
                            x       y       z     vdW  Elec       q    Type
                         _______ _______ _______ _____ _____    ______ ____

>  <TORSDO>
F 9

$$$$
=
 OpenBabel07192307433D

 63 66  0  0  1  0  0  0  0  0999 V2000
    0.9410   11.5000   19.8170 C   0  0  0  0  0  0  0  0  0  0  0  0
    1.3500   10.4310   19.0090 C   0  0  0  0  0  0  0  0  0  0  0  0
    1.3730    9.1130   19.4800 C   0  0  0  0  0  0  0  0  0  0  0  0
    0.9900    8.8080   20.7930 C   0  0  0  0  0  0  0  0  0  0  0  0
    0.6070    9.8690   21.6320 C   0  0  0  0  0  0  0  0  0  0  0  0
    0.5780   11.1880   21.1360 C   0  0  0  0  0  0  0  0  0  0  0  0
    1.6980   10.6130   17.9940 H   0  0  0  0  0  0  0  0  0  0  0  0
    1.7240    8.3250   18.8150 H   0  0  0  0  0  0  0  0  0  0  0  0
    0.2200   11.9760   21.7920 H   0  0  0  0  0  0  0  0  0  0  0  0
    0.2250    9.6320   23.0540 C   0  0  0  0  0  0  0  0  0  0  0  0
   -1.0760    9.8880   23.3880 N   0  0  0  0  0  0  0  0  0  0  0  0
    1.0200    9.2560   23.9040 O   0  0  0  0  0  0  0  0  0  0  0  0
   -1.7040   10.3910   22.7760 H   0  0  0  0  0  0  0  0  0  0  0  0
   -1.3230    9.7970   24.3630 H   0  0  0  0  0  0  0  0  0  0  0  0
    1.0650    7.3760   21.2570 C   0  0  0  0  0  0  0  0  0  0  0  0
    1.1240    7.3220   22.3490 H   0  0  0  0  0  0  0  0  0  0  0  0
    0.1570    6.8250   20.9790 H   0  0  0  0  0  0  0  0  0  0  0  0
    2.2140    6.7040   20.6950 N   0  0  0  0  0  0  0  0  0  0  0  0
    2.0780    5.7340   19.7450 C   0  0  0  0  0  0  0  0  0  0  0  0
    1.0070    5.3510   19.2940 O   0  0  0  0  0  0  0  0  0  0  0  0
    3.3020    5.2660   19.3410 N   0  0  0  0  0  0  0  0  0  0  0  0
    3.0390    6.6640   21.2810 H   0  0  0  0  0  0  0  0  0  0  0  0
    4.0270    5.9620   19.3950 H   0  0  0  0  0  0  0  0  0  0  0  0
    3.3670    4.3570   18.2180 C   0  0  2  0  0  0  0  0  0  0  0  0
    3.9150    2.9690   18.6150 C   0  0  0  0  0  0  0  0  0  0  0  0
    4.5810    2.3960   17.3600 C   0  0  0  0  0  0  0  0  0  0  0  0
    5.0500    3.6430   16.6790 C   0  0  0  0  0  0  0  0  0  0  0  0
    5.9710    3.7520   15.6520 C   0  0  0  0  0  0  0  0  0  0  0  0
    6.2190    5.0160   15.1130 C   0  0  0  0  0  0  0  0  0  0  0  0
    5.5340    6.1420   15.5930 C   0  0  0  0  0  0  0  0  0  0  0  0
    4.5940    6.0230   16.6190 C   0  0  0  0  0  0  0  0  0  0  0  0
    4.3650    4.7670   17.1660 C   0  0  0  0  0  0  0  0  0  0  0  0
    2.3740    4.2670   17.7590 H   0  0  0  0  0  0  0  0  0  0  0  0
    3.1350    2.3070   19.0060 H   0  0  0  0  0  0  0  0  0  0  0  0
    4.6700    3.0730   19.4070 H   0  0  0  0  0  0  0  0  0  0  0  0
    3.8520    1.8750   16.7310 H   0  0  0  0  0  0  0  0  0  0  0  0
    5.4040    1.7230   17.6120 H   0  0  0  0  0  0  0  0  0  0  0  0
    6.4880    2.8770   15.2680 H   0  0  0  0  0  0  0  0  0  0  0  0
    6.9390    5.1250   14.3050 H   0  0  0  0  0  0  0  0  0  0  0  0
    5.7300    7.1170   15.1510 H   0  0  0  0  0  0  0  0  0  0  0  0
    4.0500    6.8960   16.9630 H   0  0  0  0  0  0  0  0  0  0  0  0
    0.9340   12.8050   19.3160 N   0  0  0  0  0  0  0  0  0  0  0  0
    2.1850   13.5590   19.2860 C   0  0  0  0  0  0  0  0  0  0  0  0
    2.4620   13.8940   20.2910 H   0  0  0  0  0  0  0  0  0  0  0  0
    2.1200   14.4280   18.6190 H   0  0  0  0  0  0  0  0  0  0  0  0
    3.0050   12.9220   18.9270 H   0  0  0  0  0  0  0  0  0  0  0  0
   -0.2910   13.6020   19.5170 C   0  0  0  0  0  0  0  0  0  0  0  0
   -0.3640   13.8780   20.5770 H   0  0  0  0  0  0  0  0  0  0  0  0
   -0.2590   14.5620   18.9920 H   0  0  0  0  0  0  0  0  0  0  0  0
   -3.9030   11.5020   18.3570 C   0  0  0  0  0  0  0  0  0  0  0  0
   -3.8290   12.1590   19.5890 C   0  0  0  0  0  0  0  0  0  0  0  0
   -2.6640   12.8330   19.9650 C   0  0  0  0  0  0  0  0  0  0  0  0
   -1.5450   12.8500   19.1200 C   0  0  0  0  0  0  0  0  0  0  0  0
   -1.6170   12.1750   17.8930 C   0  0  0  0  0  0  0  0  0  0  0  0
   -2.7840   11.5050   17.5180 C   0  0  0  0  0  0  0  0  0  0  0  0
   -4.6810   12.1600   20.2650 H   0  0  0  0  0  0  0  0  0  0  0  0
   -2.6350   13.3510   20.9210 H   0  0  0  0  0  0  0  0  0  0  0  0
   -0.7630   12.1690   17.2180 H   0  0  0  0  0  0  0  0  0  0  0  0
   -2.8160   10.9900   16.5620 H   0  0  0  0  0  0  0  0  0  0  0  0
   -5.1470   10.7620   17.9670 C   0  0  0  0  0  0  0  0  0  0  0  0
   -5.3210   10.8640   16.8910 H   0  0  0  0  0  0  0  0  0  0  0  0
   -6.0190   11.1510   18.5030 H   0  0  0  0  0  0  0  0  0  0  0  0
   -5.0600    9.6990   18.2140 H   0  0  0  0  0  0  0  0  0  0  0  0
  1  6  1  0  0  0  0
  2  3  1  0  0  0  0
  2  1  2  0  0  0  0
  3  4  2  0  0  0  0
  4 15  1  0  0  0  0
  4  5  1  0  0  0  0
  5 10  1  0  0  0  0
  6  5  2  0  0  0  0
  6  9  1  0  0  0  0
  7  2  1  0  0  0  0
  8  3  1  0  0  0  0
 10 11  1  0  0  0  0
 10 12  2  0  0  0  0
 11 14  1  0  0  0  0
 13 11  1  0  0  0  0
 15 16  1  0  0  0  0
 17 15  1  0  0  0  0
 18 15  1  0  0  0  0
 18 22  1  0  0  0  0
 19 18  1  0  0  0  0
 20 19  2  0  0  0  0
 21 23  1  0  0  0  0
 21 19  1  0  0  0  0
 24 33  1  6  0  0  0
 24 25  1  0  0  0  0
 24 21  1  0  0  0  0
 25 34  1  0  0  0  0
 25 35  1  0  0  0  0
 26 37  1  0  0  0  0
 26 25  1  0  0  0  0
 27 32  1  0  0  0  0
 27 26  1  0  0  0  0
 28 27  2  0  0  0  0
 29 30  2  0  0  0  0
 29 28  1  0  0  0  0
 30 31  1  0  0  0  0
 31 41  1  0  0  0  0
 31 32  2  0  0  0  0
 32 24  1  0  0  0  0
 36 26  1  0  0  0  0
 38 28  1  0  0  0  0
 39 29  1  0  0  0  0
 40 30  1  0  0  0  0
 42 47  1  0  0  0  0
 42  1  1  0  0  0  0
 43 42  1  0  0  0  0
 43 44  1  0  0  0  0
 45 43  1  0  0  0  0
 46 43  1  0  0  0  0
 47 48  1  0  0  0  0
 49 47  1  0  0  0  0
 50 51  1  0  0  0  0
 51 52  2  0  0  0  0
 51 56  1  0  0  0  0
 52 57  1  0  0  0  0
 53 47  1  0  0  0  0
 53 52  1  0  0  0  0
 54 53  2  0  0  0  0
 55 54  1  0  0  0  0
 55 50  2  0  0  0  0
 58 54  1  0  0  0  0
 59 55  1  0  0  0  0
 60 63  1  0  0  0  0
 60 50  1  0  0  0  0
 60 62  1  0  0  0  0
 61 60  1  0  0  0  0
M  END
>  <MODEL>
27

>  <REMARK>
 VINA RESULT:    -6.669      2.157      9.202
 INTER + INTRA:         -10.645
 INTER:                  -9.635
 INTRA:                  -1.009
 UNBOUND:                -0.856
  Name = 
  9 active torsions:
  status: ('A' for Active; 'I' for Inactive)
    1  A    between atoms: C_1  and  C_2
    2  A    between atoms: C_5  and  C_6
    3  A    between atoms: C_6  and  N_7
    4  A    between atoms: N_7  and  C_8
    5  A    between atoms: N_7  and  C_9
    6  A    between atoms: C_12  and  C_13
    7  A    between atoms: C_13  and  N_14
    8  A    between atoms: N_17  and  C_18
    9  A    between atoms: C_27  and  C_28
                            x       y       z     vdW  Elec       q    Type
                         _______ _______ _______ _____ _____    ______ ____

>  <TORSDO>
F 9

$$$$
=
 OpenBabel07192307433D

 63 66  0  0  1  0  0  0  0  0999 V2000
   -0.7620   12.6120   21.5540 C   0  0  0  0  0  0  0  0  0  0  0  0
   -0.7810   11.8170   22.7080 C   0  0  0  0  0  0  0  0  0  0  0  0
   -0.4970   10.4470   22.6680 C   0  0  0  0  0  0  0  0  0  0  0  0
   -0.1860    9.8080   21.4600 C   0  0  0  0  0  0  0  0  0  0  0  0
   -0.1930   10.5790   20.2850 C   0  0  0  0  0  0  0  0  0  0  0  0
   -0.4690   11.9600   20.3460 C   0  0  0  0  0  0  0  0  0  0  0  0
   -1.0560   12.2500   23.6670 H   0  0  0  0  0  0  0  0  0  0  0  0
   -0.5500    9.8740   23.5920 H   0  0  0  0  0  0  0  0  0  0  0  0
   -0.4080   12.5390   19.4290 H   0  0  0  0  0  0  0  0  0  0  0  0
    0.0870    9.9660   18.9540 C   0  0  0  0  0  0  0  0  0  0  0  0
   -0.9980    9.6690   18.1780 N   0  0  0  0  0  0  0  0  0  0  0  0
    1.2170    9.7050   18.5650 O   0  0  0  0  0  0  0  0  0  0  0  0
   -1.9420    9.6740   18.5400 H   0  0  0  0  0  0  0  0  0  0  0  0
   -0.8180    9.1890   17.3060 H   0  0  0  0  0  0  0  0  0  0  0  0
    0.0800    8.3250   21.4710 C   0  0  0  0  0  0  0  0  0  0  0  0
    0.1190    7.9430   22.4960 H   0  0  0  0  0  0  0  0  0  0  0  0
   -0.7320    7.7770   20.9770 H   0  0  0  0  0  0  0  0  0  0  0  0
    1.3280    8.0130   20.8110 N   0  0  0  0  0  0  0  0  0  0  0  0
    1.6160    6.7460   20.3950 C   0  0  0  0  0  0  0  0  0  0  0  0
    0.8740    5.7840   20.5380 O   0  0  0  0  0  0  0  0  0  0  0  0
    2.8360    6.6990   19.7690 N   0  0  0  0  0  0  0  0  0  0  0  0
    2.1110    8.6180   21.0260 H   0  0  0  0  0  0  0  0  0  0  0  0
    3.0700    7.5580   19.3000 H   0  0  0  0  0  0  0  0  0  0  0  0
    3.2370    5.4760   19.1110 C   0  0  2  0  0  0  0  0  0  0  0  0
    4.0030    4.5230   20.0540 C   0  0  0  0  0  0  0  0  0  0  0  0
    4.9350    3.6950   19.1630 C   0  0  0  0  0  0  0  0  0  0  0  0
    5.2220    4.6620   18.0570 C   0  0  0  0  0  0  0  0  0  0  0  0
    6.2300    4.5920   17.1120 C   0  0  0  0  0  0  0  0  0  0  0  0
    6.2800    5.5750   16.1210 C   0  0  0  0  0  0  0  0  0  0  0  0
    5.3190    6.5950   16.0790 C   0  0  0  0  0  0  0  0  0  0  0  0
    4.2960    6.6510   17.0280 C   0  0  0  0  0  0  0  0  0  0  0  0
    4.2610    5.6840   18.0240 C   0  0  0  0  0  0  0  0  0  0  0  0
    2.3550    4.9790   18.6860 H   0  0  0  0  0  0  0  0  0  0  0  0
    3.3310    3.8910   20.6460 H   0  0  0  0  0  0  0  0  0  0  0  0
    4.6070    5.1010   20.7670 H   0  0  0  0  0  0  0  0  0  0  0  0
    4.4200    2.8140   18.7670 H   0  0  0  0  0  0  0  0  0  0  0  0
    5.8380    3.3910   19.6970 H   0  0  0  0  0  0  0  0  0  0  0  0
    6.9640    3.7910   17.1330 H   0  0  0  0  0  0  0  0  0  0  0  0
    7.0640    5.5390   15.3680 H   0  0  0  0  0  0  0  0  0  0  0  0
    5.3670    7.3430   15.2910 H   0  0  0  0  0  0  0  0  0  0  0  0
    3.5410    7.4290   16.9690 H   0  0  0  0  0  0  0  0  0  0  0  0
   -1.0540   13.9770   21.6290 N   0  0  0  0  0  0  0  0  0  0  0  0
   -2.0920   14.5280   20.7600 C   0  0  0  0  0  0  0  0  0  0  0  0
   -2.3560   15.5470   21.0660 H   0  0  0  0  0  0  0  0  0  0  0  0
   -2.9950   13.9050   20.7590 H   0  0  0  0  0  0  0  0  0  0  0  0
   -1.7270   14.5930   19.7260 H   0  0  0  0  0  0  0  0  0  0  0  0
    0.0540   14.8900   21.9630 C   0  0  0  0  0  0  0  0  0  0  0  0
   -0.3300   15.9180   21.9970 H   0  0  0  0  0  0  0  0  0  0  0  0
    0.4510   14.7190   22.9700 H   0  0  0  0  0  0  0  0  0  0  0  0
    3.2720   14.6450   19.0680 C   0  0  0  0  0  0  0  0  0  0  0  0
    3.4700   14.2200   20.3860 C   0  0  0  0  0  0  0  0  0  0  0  0
    2.4330   14.3020   21.3200 C   0  0  0  0  0  0  0  0  0  0  0  0
    1.1840   14.8250   20.9570 C   0  0  0  0  0  0  0  0  0  0  0  0
    0.9970   15.2660   19.6390 C   0  0  0  0  0  0  0  0  0  0  0  0
    2.0320   15.1800   18.7060 C   0  0  0  0  0  0  0  0  0  0  0  0
    4.4300   13.8130   20.6950 H   0  0  0  0  0  0  0  0  0  0  0  0
    2.6050   13.9510   22.3340 H   0  0  0  0  0  0  0  0  0  0  0  0
    0.0380   15.6790   19.3290 H   0  0  0  0  0  0  0  0  0  0  0  0
    1.8620   15.5280   17.6900 H   0  0  0  0  0  0  0  0  0  0  0  0
    4.3930   14.5750   18.0740 C   0  0  0  0  0  0  0  0  0  0  0  0
    5.0710   13.7560   18.3330 H   0  0  0  0  0  0  0  0  0  0  0  0
    4.9610   15.5110   18.0560 H   0  0  0  0  0  0  0  0  0  0  0  0
    4.0060   14.4100   17.0630 H   0  0  0  0  0  0  0  0  0  0  0  0
  1 42  1  0  0  0  0
  1  2  1  0  0  0  0
  2  7  1  0  0  0  0
  3  2  2  0  0  0  0
  3  8  1  0  0  0  0
  4 15  1  0  0  0  0
  4  3  1  0  0  0  0
  5  6  1  0  0  0  0
  5  4  2  0  0  0  0
  6  1  2  0  0  0  0
  9  6  1  0  0  0  0
 10  5  1  0  0  0  0
 11 13  1  0  0  0  0
 11 10  1  0  0  0  0
 12 10  2  0  0  0  0
 14 11  1  0  0  0  0
 15 16  1  0  0  0  0
 17 15  1  0  0  0  0
 18 22  1  0  0  0  0
 18 15  1  0  0  0  0
 19 20  2  0  0  0  0
 19 18  1  0  0  0  0
 21 19  1  0  0  0  0
 23 21  1  0  0  0  0
 24 33  1  6  0  0  0
 24 21  1  0  0  0  0
 24 25  1  0  0  0  0
 25 34  1  0  0  0  0
 25 35  1  0  0  0  0
 26 37  1  0  0  0  0
 26 25  1  0  0  0  0
 27 26  1  0  0  0  0
 28 38  1  0  0  0  0
 28 27  2  0  0  0  0
 29 28  1  0  0  0  0
 30 29  2  0  0  0  0
 30 31  1  0  0  0  0
 31 32  2  0  0  0  0
 32 27  1  0  0  0  0
 32 24  1  0  0  0  0
 36 26  1  0  0  0  0
 39 29  1  0  0  0  0
 40 30  1  0  0  0  0
 41 31  1  0  0  0  0
 42 47  1  0  0  0  0
 43 44  1  0  0  0  0
 43 42  1  0  0  0  0
 45 43  1  0  0  0  0
 46 43  1  0  0  0  0
 47 48  1  0  0  0  0
 47 49  1  0  0  0  0
 50 51  1  0  0  0  0
 51 56  1  0  0  0  0
 51 52  2  0  0  0  0
 52 57  1  0  0  0  0
 53 52  1  0  0  0  0
 53 47  1  0  0  0  0
 54 53  2  0  0  0  0
 55 50  2  0  0  0  0
 55 54  1  0  0  0  0
 58 54  1  0  0  0  0
 59 55  1  0  0  0  0
 60 61  1  0  0  0  0
 60 50  1  0  0  0  0
 62 60  1  0  0  0  0
 63 60  1  0  0  0  0
M  END
>  <MODEL>
28

>  <REMARK>
 VINA RESULT:    -6.628      3.170      8.880
 INTER + INTRA:         -10.584
 INTER:                  -9.616
 INTRA:                  -0.968
 UNBOUND:                -0.856
  Name = 
  9 active torsions:
  status: ('A' for Active; 'I' for Inactive)
    1  A    between atoms: C_1  and  C_2
    2  A    between atoms: C_5  and  C_6
    3  A    between atoms: C_6  and  N_7
    4  A    between atoms: N_7  and  C_8
    5  A    between atoms: N_7  and  C_9
    6  A    between atoms: C_12  and  C_13
    7  A    between atoms: C_13  and  N_14
    8  A    between atoms: N_17  and  C_18
    9  A    between atoms: C_27  and  C_28
                            x       y       z     vdW  Elec       q    Type
                         _______ _______ _______ _____ _____    ______ ____

>  <TORSDO>
F 9

$$$$
=
 OpenBabel07192307433D

 63 66  0  0  1  0  0  0  0  0999 V2000
    0.1700   11.9960   19.8060 C   0  0  0  0  0  0  0  0  0  0  0  0
    0.8840   11.0860   19.0150 C   0  0  0  0  0  0  0  0  0  0  0  0
    1.2160    9.8060   19.4740 C   0  0  0  0  0  0  0  0  0  0  0  0
    0.8490    9.3810   20.7580 C   0  0  0  0  0  0  0  0  0  0  0  0
    0.1610   10.2880   21.5820 C   0  0  0  0  0  0  0  0  0  0  0  0
   -0.1760   11.5690   21.0980 C   0  0  0  0  0  0  0  0  0  0  0  0
    1.2310   11.3760   18.0250 H   0  0  0  0  0  0  0  0  0  0  0  0
    1.7940    9.1500   18.8250 H   0  0  0  0  0  0  0  0  0  0  0  0
   -0.7600   12.2230   21.7380 H   0  0  0  0  0  0  0  0  0  0  0  0
   -0.2290    9.9270   22.9750 C   0  0  0  0  0  0  0  0  0  0  0  0
   -1.4480   10.3750   23.4040 N   0  0  0  0  0  0  0  0  0  0  0  0
    0.4950    9.2890   23.7260 O   0  0  0  0  0  0  0  0  0  0  0  0
   -1.9790   11.0700   22.8980 H   0  0  0  0  0  0  0  0  0  0  0  0
   -1.6870   10.1930   24.3700 H   0  0  0  0  0  0  0  0  0  0  0  0
    1.2600    8.0040   21.2120 C   0  0  0  0  0  0  0  0  0  0  0  0
    1.5790    8.0170   22.2590 H   0  0  0  0  0  0  0  0  0  0  0  0
    0.4140    7.3060   21.1640 H   0  0  0  0  0  0  0  0  0  0  0  0
    2.3420    7.4890   20.4040 N   0  0  0  0  0  0  0  0  0  0  0  0
    2.2130    6.3280   19.6980 C   0  0  0  0  0  0  0  0  0  0  0  0
    1.2060    5.6330   19.6850 O   0  0  0  0  0  0  0  0  0  0  0  0
    3.3520    6.0570   18.9840 N   0  0  0  0  0  0  0  0  0  0  0  0
    3.2770    7.7570   20.6840 H   0  0  0  0  0  0  0  0  0  0  0  0
    3.8430    6.8880   18.6980 H   0  0  0  0  0  0  0  0  0  0  0  0
    3.3430    4.9590   18.0440 C   0  0  2  0  0  0  0  0  0  0  0  0
    3.7210    3.6150   18.7040 C   0  0  0  0  0  0  0  0  0  0  0  0
    4.3510    2.7570   17.6020 C   0  0  0  0  0  0  0  0  0  0  0  0
    4.9750    3.8050   16.7340 C   0  0  0  0  0  0  0  0  0  0  0  0
    5.9300    3.6280   15.7480 C   0  0  0  0  0  0  0  0  0  0  0  0
    6.3330    4.7400   15.0070 C   0  0  0  0  0  0  0  0  0  0  0  0
    5.7680    6.0010   15.2480 C   0  0  0  0  0  0  0  0  0  0  0  0
    4.7930    6.1690   16.2350 C   0  0  0  0  0  0  0  0  0  0  0  0
    4.4090    5.0640   16.9830 C   0  0  0  0  0  0  0  0  0  0  0  0
    2.3590    4.8940   17.5620 H   0  0  0  0  0  0  0  0  0  0  0  0
    2.8600    3.1210   19.1690 H   0  0  0  0  0  0  0  0  0  0  0  0
    4.4610    3.7790   19.4990 H   0  0  0  0  0  0  0  0  0  0  0  0
    3.5840    2.2130   17.0410 H   0  0  0  0  0  0  0  0  0  0  0  0
    5.0850    2.0570   18.0060 H   0  0  0  0  0  0  0  0  0  0  0  0
    6.3550    2.6480   15.5490 H   0  0  0  0  0  0  0  0  0  0  0  0
    7.0820    4.6240   14.2270 H   0  0  0  0  0  0  0  0  0  0  0  0
    6.0840    6.8530   14.6510 H   0  0  0  0  0  0  0  0  0  0  0  0
    4.3430    7.1430   16.3940 H   0  0  0  0  0  0  0  0  0  0  0  0
   -0.1420   13.2680   19.3180 N   0  0  0  0  0  0  0  0  0  0  0  0
   -0.4450   13.4270   17.8970 C   0  0  0  0  0  0  0  0  0  0  0  0
   -0.3120   14.4680   17.5850 H   0  0  0  0  0  0  0  0  0  0  0  0
   -1.4670   13.1060   17.6610 H   0  0  0  0  0  0  0  0  0  0  0  0
    0.2450   12.8240   17.2910 H   0  0  0  0  0  0  0  0  0  0  0  0
    0.5090   14.4210   19.9680 C   0  0  0  0  0  0  0  0  0  0  0  0
   -0.0680   15.3280   19.7430 H   0  0  0  0  0  0  0  0  0  0  0  0
    0.4880   14.3540   21.0610 H   0  0  0  0  0  0  0  0  0  0  0  0
    4.5950   14.9380   18.6140 C   0  0  0  0  0  0  0  0  0  0  0  0
    4.3290   14.4880   19.9110 C   0  0  0  0  0  0  0  0  0  0  0  0
    3.0120   14.3250   20.3490 C   0  0  0  0  0  0  0  0  0  0  0  0
    1.9360   14.6220   19.5010 C   0  0  0  0  0  0  0  0  0  0  0  0
    2.2070   15.0900   18.2080 C   0  0  0  0  0  0  0  0  0  0  0  0
    3.5240   15.2500   17.7710 C   0  0  0  0  0  0  0  0  0  0  0  0
    5.1450   14.2530   20.5910 H   0  0  0  0  0  0  0  0  0  0  0  0
    2.8290   13.9580   21.3560 H   0  0  0  0  0  0  0  0  0  0  0  0
    1.3920   15.3320   17.5280 H   0  0  0  0  0  0  0  0  0  0  0  0
    3.7090   15.6130   16.7630 H   0  0  0  0  0  0  0  0  0  0  0  0
    6.0090   15.1330   18.1560 C   0  0  0  0  0  0  0  0  0  0  0  0
    6.0330   15.8010   17.2890 H   0  0  0  0  0  0  0  0  0  0  0  0
    6.4670   14.1780   17.8770 H   0  0  0  0  0  0  0  0  0  0  0  0
    6.6210   15.5650   18.9550 H   0  0  0  0  0  0  0  0  0  0  0  0
  1  6  1  0  0  0  0
  2  3  1  0  0  0  0
  2  1  2  0  0  0  0
  3  4  2  0  0  0  0
  4 15  1  0  0  0  0
  4  5  1  0  0  0  0
  5 10  1  0  0  0  0
  6  5  2  0  0  0  0
  6  9  1  0  0  0  0
  7  2  1  0  0  0  0
  8  3  1  0  0  0  0
 10 11  1  0  0  0  0
 10 12  2  0  0  0  0
 11 14  1  0  0  0  0
 13 11  1  0  0  0  0
 15 16  1  0  0  0  0
 17 15  1  0  0  0  0
 18 22  1  0  0  0  0
 18 15  1  0  0  0  0
 19 18  1  0  0  0  0
 20 19  2  0  0  0  0
 21 19  1  0  0  0  0
 23 21  1  0  0  0  0
 24 33  1  6  0  0  0
 24 25  1  0  0  0  0
 24 21  1  0  0  0  0
 25 34  1  0  0  0  0
 25 35  1  0  0  0  0
 26 37  1  0  0  0  0
 26 25  1  0  0  0  0
 27 32  1  0  0  0  0
 27 26  1  0  0  0  0
 28 27  2  0  0  0  0
 29 30  2  0  0  0  0
 29 28  1  0  0  0  0
 30 31  1  0  0  0  0
 31 41  1  0  0  0  0
 31 32  2  0  0  0  0
 32 24  1  0  0  0  0
 36 26  1  0  0  0  0
 38 28  1  0  0  0  0
 39 29  1  0  0  0  0
 40 30  1  0  0  0  0
 42  1  1  0  0  0  0
 42 47  1  0  0  0  0
 43 42  1  0  0  0  0
 44 43  1  0  0  0  0
 45 43  1  0  0  0  0
 46 43  1  0  0  0  0
 47 49  1  0  0  0  0
 48 47  1  0  0  0  0
 50 51  1  0  0  0  0
 51 52  2  0  0  0  0
 51 56  1  0  0  0  0
 52 57  1  0  0  0  0
 53 47  1  0  0  0  0
 53 52  1  0  0  0  0
 54 53  2  0  0  0  0
 55 54  1  0  0  0  0
 55 50  2  0  0  0  0
 58 54  1  0  0  0  0
 59 55  1  0  0  0  0
 60 50  1  0  0  0  0
 60 63  1  0  0  0  0
 61 60  1  0  0  0  0
 62 60  1  0  0  0  0
M  END
>  <MODEL>
29

>  <REMARK>
 VINA RESULT:    -6.615      3.492      8.922
 INTER + INTRA:         -10.565
 INTER:                 -10.090
 INTRA:                  -0.476
 UNBOUND:                -0.856
  Name = 
  9 active torsions:
  status: ('A' for Active; 'I' for Inactive)
    1  A    between atoms: C_1  and  C_2
    2  A    between atoms: C_5  and  C_6
    3  A    between atoms: C_6  and  N_7
    4  A    between atoms: N_7  and  C_8
    5  A    between atoms: N_7  and  C_9
    6  A    between atoms: C_12  and  C_13
    7  A    between atoms: C_13  and  N_14
    8  A    between atoms: N_17  and  C_18
    9  A    between atoms: C_27  and  C_28
                            x       y       z     vdW  Elec       q    Type
                         _______ _______ _______ _____ _____    ______ ____

>  <TORSDO>
F 9

$$$$
=
 OpenBabel07192307433D

 63 66  0  0  1  0  0  0  0  0999 V2000
    1.8720   13.2190   20.3650 C   0  0  0  0  0  0  0  0  0  0  0  0
    1.8540   13.0920   18.9700 C   0  0  0  0  0  0  0  0  0  0  0  0
    1.3980   11.9290   18.3380 C   0  0  0  0  0  0  0  0  0  0  0  0
    0.9410   10.8340   19.0830 C   0  0  0  0  0  0  0  0  0  0  0  0
    0.9800   10.9260   20.4850 C   0  0  0  0  0  0  0  0  0  0  0  0
    1.4320   12.1100   21.1030 C   0  0  0  0  0  0  0  0  0  0  0  0
    2.2360   13.8940   18.3420 H   0  0  0  0  0  0  0  0  0  0  0  0
    1.4300   11.8770   17.2510 H   0  0  0  0  0  0  0  0  0  0  0  0
    1.3930   12.1700   22.1870 H   0  0  0  0  0  0  0  0  0  0  0  0
    0.5500    9.7890   21.3480 C   0  0  0  0  0  0  0  0  0  0  0  0
    1.5410    9.1040   21.9940 N   0  0  0  0  0  0  0  0  0  0  0  0
   -0.6180    9.4470   21.4670 O   0  0  0  0  0  0  0  0  0  0  0  0
    2.5180    9.2170   21.7630 H   0  0  0  0  0  0  0  0  0  0  0  0
    1.2620    8.2890   22.5240 H   0  0  0  0  0  0  0  0  0  0  0  0
    0.4900    9.5960   18.3510 C   0  0  0  0  0  0  0  0  0  0  0  0
   -0.0320    8.9110   19.0270 H   0  0  0  0  0  0  0  0  0  0  0  0
   -0.2320    9.8470   17.5620 H   0  0  0  0  0  0  0  0  0  0  0  0
    1.6110    8.9010   17.7590 N   0  0  0  0  0  0  0  0  0  0  0  0
    2.3230    7.9720   18.4610 C   0  0  0  0  0  0  0  0  0  0  0  0
    2.0910    7.6510   19.6180 O   0  0  0  0  0  0  0  0  0  0  0  0
    3.3140    7.4260   17.6880 N   0  0  0  0  0  0  0  0  0  0  0  0
    2.0930    9.3850   17.0130 H   0  0  0  0  0  0  0  0  0  0  0  0
    3.0790    7.3950   16.7100 H   0  0  0  0  0  0  0  0  0  0  0  0
    4.0640    6.3020   18.2030 C   0  0  2  0  0  0  0  0  0  0  0  0
    5.3590    6.0410   17.4030 C   0  0  0  0  0  0  0  0  0  0  0  0
    5.6530    4.5430   17.5400 C   0  0  0  0  0  0  0  0  0  0  0  0
    4.2710    3.9820   17.6690 C   0  0  0  0  0  0  0  0  0  0  0  0
    3.8770    2.6630   17.5290 C   0  0  0  0  0  0  0  0  0  0  0  0
    2.5370    2.3430   17.7550 C   0  0  0  0  0  0  0  0  0  0  0  0
    1.6210    3.3350   18.1340 C   0  0  0  0  0  0  0  0  0  0  0  0
    2.0290    4.6630   18.2880 C   0  0  0  0  0  0  0  0  0  0  0  0
    3.3590    4.9800   18.0430 C   0  0  0  0  0  0  0  0  0  0  0  0
    4.2890    6.4650   19.2660 H   0  0  0  0  0  0  0  0  0  0  0  0
    6.1960    6.6580   17.7480 H   0  0  0  0  0  0  0  0  0  0  0  0
    5.2030    6.2810   16.3430 H   0  0  0  0  0  0  0  0  0  0  0  0
    6.2280    4.3370   18.4490 H   0  0  0  0  0  0  0  0  0  0  0  0
    6.1820    4.1540   16.6670 H   0  0  0  0  0  0  0  0  0  0  0  0
    4.5900    1.8910   17.2530 H   0  0  0  0  0  0  0  0  0  0  0  0
    2.2050    1.3130   17.6510 H   0  0  0  0  0  0  0  0  0  0  0  0
    0.5840    3.0640   18.3200 H   0  0  0  0  0  0  0  0  0  0  0  0
    1.3180    5.4160   18.6090 H   0  0  0  0  0  0  0  0  0  0  0  0
    2.3390   14.3930   20.9640 N   0  0  0  0  0  0  0  0  0  0  0  0
    3.7800   14.6110   21.0670 C   0  0  0  0  0  0  0  0  0  0  0  0
    4.3320   13.7000   20.8100 H   0  0  0  0  0  0  0  0  0  0  0  0
    4.0710   14.9380   22.0730 H   0  0  0  0  0  0  0  0  0  0  0  0
    4.1000   15.3850   20.3570 H   0  0  0  0  0  0  0  0  0  0  0  0
    1.5240   14.9710   22.0490 C   0  0  0  0  0  0  0  0  0  0  0  0
    1.7980   14.4880   22.9960 H   0  0  0  0  0  0  0  0  0  0  0  0
    1.7390   16.0320   22.2160 H   0  0  0  0  0  0  0  0  0  0  0  0
   -2.7400   14.4980   21.4220 C   0  0  0  0  0  0  0  0  0  0  0  0
   -2.1360   14.0140   22.5870 C   0  0  0  0  0  0  0  0  0  0  0  0
   -0.7620   14.1640   22.7880 C   0  0  0  0  0  0  0  0  0  0  0  0
    0.0380   14.7870   21.8200 C   0  0  0  0  0  0  0  0  0  0  0  0
   -0.5690   15.2540   20.6450 C   0  0  0  0  0  0  0  0  0  0  0  0
   -1.9440   15.1070   20.4480 C   0  0  0  0  0  0  0  0  0  0  0  0
   -2.7320   13.5240   23.3540 H   0  0  0  0  0  0  0  0  0  0  0  0
   -0.3160   13.7950   23.7090 H   0  0  0  0  0  0  0  0  0  0  0  0
    0.0270   15.7400   19.8740 H   0  0  0  0  0  0  0  0  0  0  0  0
   -2.3910   15.4780   19.5290 H   0  0  0  0  0  0  0  0  0  0  0  0
   -4.2120   14.3160   21.2020 C   0  0  0  0  0  0  0  0  0  0  0  0
   -4.3850   13.7440   20.2850 H   0  0  0  0  0  0  0  0  0  0  0  0
   -4.7190   15.2830   21.1140 H   0  0  0  0  0  0  0  0  0  0  0  0
   -4.6690   13.7850   22.0440 H   0  0  0  0  0  0  0  0  0  0  0  0
  1 42  1  0  0  0  0
  1  6  1  0  0  0  0
  2  1  2  0  0  0  0
  3  2  1  0  0  0  0
  3  4  2  0  0  0  0
  4  5  1  0  0  0  0
  5  6  2  0  0  0  0
  5 10  1  0  0  0  0
  6  9  1  0  0  0  0
  7  2  1  0  0  0  0
  8  3  1  0  0  0  0
 10 12  2  0  0  0  0
 10 11  1  0  0  0  0
 11 14  1  0  0  0  0
 13 11  1  0  0  0  0
 15 16  1  0  0  0  0
 15  4  1  0  0  0  0
 17 15  1  0  0  0  0
 18 15  1  0  0  0  0
 18 19  1  0  0  0  0
 19 20  2  0  0  0  0
 21 24  1  0  0  0  0
 21 19  1  0  0  0  0
 22 18  1  0  0  0  0
 23 21  1  0  0  0  0
 24 33  1  1  0  0  0
 25 26  1  0  0  0  0
 25 34  1  0  0  0  0
 25 24  1  0  0  0  0
 26 27  1  0  0  0  0
 26 36  1  0  0  0  0
 27 32  1  0  0  0  0
 28 27  2  0  0  0  0
 28 29  1  0  0  0  0
 29 30  2  0  0  0  0
 30 31  1  0  0  0  0
 30 40  1  0  0  0  0
 31 41  1  0  0  0  0
 32 24  1  0  0  0  0
 32 31  2  0  0  0  0
 35 25  1  0  0  0  0
 37 26  1  0  0  0  0
 38 28  1  0  0  0  0
 39 29  1  0  0  0  0
 42 43  1  0  0  0  0
 42 47  1  0  0  0  0
 43 45  1  0  0  0  0
 44 43  1  0  0  0  0
 46 43  1  0  0  0  0
 47 49  1  0  0  0  0
 47 48  1  0  0  0  0
 50 51  1  0  0  0  0
 51 52  2  0  0  0  0
 51 56  1  0  0  0  0
 52 57  1  0  0  0  0
 53 47  1  0  0  0  0
 53 52  1  0  0  0  0
 54 53  2  0  0  0  0
 55 54  1  0  0  0  0
 55 50  2  0  0  0  0
 58 54  1  0  0  0  0
 59 55  1  0  0  0  0
 60 50  1  0  0  0  0
 60 63  1  0  0  0  0
 61 60  1  0  0  0  0
 62 60  1  0  0  0  0
M  END
>  <MODEL>
30

>  <REMARK>
 VINA RESULT:    -6.571      2.775      9.604
 INTER + INTRA:         -10.501
 INTER:                  -9.787
 INTRA:                  -0.714
 UNBOUND:                -0.856
  Name = 
  9 active torsions:
  status: ('A' for Active; 'I' for Inactive)
    1  A    between atoms: C_1  and  C_2
    2  A    between atoms: C_5  and  C_6
    3  A    between atoms: C_6  and  N_7
    4  A    between atoms: N_7  and  C_8
    5  A    between atoms: N_7  and  C_9
    6  A    between atoms: C_12  and  C_13
    7  A    between atoms: C_13  and  N_14
    8  A    between atoms: N_17  and  C_18
    9  A    between atoms: C_27  and  C_28
                            x       y       z     vdW  Elec       q    Type
                         _______ _______ _______ _____ _____    ______ ____

>  <TORSDO>
F 9

$$$$
=
 OpenBabel07192307433D

 63 66  0  0  1  0  0  0  0  0999 V2000
   -0.1480   12.3190   20.5180 C   0  0  0  0  0  0  0  0  0  0  0  0
    1.0050   11.5220   20.5460 C   0  0  0  0  0  0  0  0  0  0  0  0
    1.2170   10.4940   19.6200 C   0  0  0  0  0  0  0  0  0  0  0  0
    0.2730   10.2130   18.6230 C   0  0  0  0  0  0  0  0  0  0  0  0
   -0.9070   10.9770   18.5970 C   0  0  0  0  0  0  0  0  0  0  0  0
   -1.0970   12.0170   19.5300 C   0  0  0  0  0  0  0  0  0  0  0  0
    1.7530   11.6680   21.3230 H   0  0  0  0  0  0  0  0  0  0  0  0
    2.1200    9.8910   19.7040 H   0  0  0  0  0  0  0  0  0  0  0  0
   -1.9920   12.6270   19.4440 H   0  0  0  0  0  0  0  0  0  0  0  0
   -1.9780   10.7130   17.5930 C   0  0  0  0  0  0  0  0  0  0  0  0
   -2.8460    9.6960   17.8790 N   0  0  0  0  0  0  0  0  0  0  0  0
   -2.0810   11.3400   16.5480 O   0  0  0  0  0  0  0  0  0  0  0  0
   -2.6720    9.0270   18.6170 H   0  0  0  0  0  0  0  0  0  0  0  0
   -3.5290    9.4670   17.1710 H   0  0  0  0  0  0  0  0  0  0  0  0
    0.5380    9.0740   17.6730 C   0  0  0  0  0  0  0  0  0  0  0  0
   -0.1000    8.2150   17.9040 H   0  0  0  0  0  0  0  0  0  0  0  0
    0.2950    9.3590   16.6410 H   0  0  0  0  0  0  0  0  0  0  0  0
    1.9200    8.6550   17.7320 N   0  0  0  0  0  0  0  0  0  0  0  0
    2.2600    7.3540   17.9650 C   0  0  0  0  0  0  0  0  0  0  0  0
    1.4560    6.4490   18.1420 O   0  0  0  0  0  0  0  0  0  0  0  0
    3.6210    7.1900   17.9450 N   0  0  0  0  0  0  0  0  0  0  0  0
    2.5900    9.3630   18.0040 H   0  0  0  0  0  0  0  0  0  0  0  0
    4.0860    7.8360   17.3290 H   0  0  0  0  0  0  0  0  0  0  0  0
    4.1660    5.8520   18.0030 C   0  0  2  0  0  0  0  0  0  0  0  0
    5.0520    5.6300   19.2480 C   0  0  0  0  0  0  0  0  0  0  0  0
    6.0720    4.5530   18.8610 C   0  0  0  0  0  0  0  0  0  0  0  0
    6.2270    4.8070   17.3940 C   0  0  0  0  0  0  0  0  0  0  0  0
    7.2270    4.3460   16.5570 C   0  0  0  0  0  0  0  0  0  0  0  0
    7.1470    4.6490   15.1960 C   0  0  0  0  0  0  0  0  0  0  0  0
    6.0660    5.3880   14.6940 C   0  0  0  0  0  0  0  0  0  0  0  0
    5.0520    5.8380   15.5430 C   0  0  0  0  0  0  0  0  0  0  0  0
    5.1460    5.5510   16.8980 C   0  0  0  0  0  0  0  0  0  0  0  0
    3.3480    5.1200   17.9710 H   0  0  0  0  0  0  0  0  0  0  0  0
    4.4690    5.3470   20.1320 H   0  0  0  0  0  0  0  0  0  0  0  0
    5.5860    6.5560   19.5020 H   0  0  0  0  0  0  0  0  0  0  0  0
    5.6670    3.5500   19.0290 H   0  0  0  0  0  0  0  0  0  0  0  0
    7.0110    4.6730   19.4070 H   0  0  0  0  0  0  0  0  0  0  0  0
    8.0550    3.7580   16.9430 H   0  0  0  0  0  0  0  0  0  0  0  0
    7.9220    4.2970   14.5200 H   0  0  0  0  0  0  0  0  0  0  0  0
    6.0130    5.6030   13.6290 H   0  0  0  0  0  0  0  0  0  0  0  0
    4.2060    6.3840   15.1380 H   0  0  0  0  0  0  0  0  0  0  0  0
   -0.3300   13.3350   21.4610 N   0  0  0  0  0  0  0  0  0  0  0  0
   -1.4060   13.2080   22.4420 C   0  0  0  0  0  0  0  0  0  0  0  0
   -2.3560   13.5610   22.0260 H   0  0  0  0  0  0  0  0  0  0  0  0
   -1.1840   13.7620   23.3620 H   0  0  0  0  0  0  0  0  0  0  0  0
   -1.5520   12.1530   22.7110 H   0  0  0  0  0  0  0  0  0  0  0  0
   -0.0000   14.7110   21.0460 C   0  0  0  0  0  0  0  0  0  0  0  0
   -0.8060   15.0910   20.4040 H   0  0  0  0  0  0  0  0  0  0  0  0
    0.0240   15.4100   21.8880 H   0  0  0  0  0  0  0  0  0  0  0  0
    3.7420   15.0010   18.8750 C   0  0  0  0  0  0  0  0  0  0  0  0
    2.5210   15.0440   18.1930 C   0  0  0  0  0  0  0  0  0  0  0  0
    1.3150   14.9480   18.8930 C   0  0  0  0  0  0  0  0  0  0  0  0
    1.3080   14.7910   20.2860 C   0  0  0  0  0  0  0  0  0  0  0  0
    2.5350   14.7300   20.9620 C   0  0  0  0  0  0  0  0  0  0  0  0
    3.7390   14.8300   20.2620 C   0  0  0  0  0  0  0  0  0  0  0  0
    2.4970   15.1630   17.1130 H   0  0  0  0  0  0  0  0  0  0  0  0
    0.3780   15.0010   18.3440 H   0  0  0  0  0  0  0  0  0  0  0  0
    2.5600   14.6050   22.0440 H   0  0  0  0  0  0  0  0  0  0  0  0
    4.6770   14.7810   20.8090 H   0  0  0  0  0  0  0  0  0  0  0  0
    5.0340   15.0830   18.1180 C   0  0  0  0  0  0  0  0  0  0  0  0
    5.3940   14.0770   17.8830 H   0  0  0  0  0  0  0  0  0  0  0  0
    5.7990   15.6040   18.7030 H   0  0  0  0  0  0  0  0  0  0  0  0
    4.9020   15.6410   17.1850 H   0  0  0  0  0  0  0  0  0  0  0  0
  1  2  1  0  0  0  0
  1 42  1  0  0  0  0
  2  7  1  0  0  0  0
  3  8  1  0  0  0  0
  3  2  2  0  0  0  0
  4  3  1  0  0  0  0
  5  4  2  0  0  0  0
  5  6  1  0  0  0  0
  6  1  2  0  0  0  0
  9  6  1  0  0  0  0
 10 11  1  0  0  0  0
 10  5  1  0  0  0  0
 11 13  1  0  0  0  0
 12 10  2  0  0  0  0
 14 11  1  0  0  0  0
 15 18  1  0  0  0  0
 15 16  1  0  0  0  0
 15  4  1  0  0  0  0
 17 15  1  0  0  0  0
 18 19  1  0  0  0  0
 18 22  1  0  0  0  0
 19 20  2  0  0  0  0
 21 19  1  0  0  0  0
 21 24  1  0  0  0  0
 23 21  1  0  0  0  0
 24 33  1  6  0  0  0
 24 25  1  0  0  0  0
 25 35  1  0  0  0  0
 25 34  1  0  0  0  0
 26 36  1  0  0  0  0
 26 25  1  0  0  0  0
 26 37  1  0  0  0  0
 27 26  1  0  0  0  0
 28 38  1  0  0  0  0
 28 27  2  0  0  0  0
 29 28  1  0  0  0  0
 30 29  2  0  0  0  0
 30 31  1  0  0  0  0
 31 32  2  0  0  0  0
 32 27  1  0  0  0  0
 32 24  1  0  0  0  0
 39 29  1  0  0  0  0
 40 30  1  0  0  0  0
 41 31  1  0  0  0  0
 42 43  1  0  0  0  0
 43 46  1  0  0  0  0
 43 45  1  0  0  0  0
 44 43  1  0  0  0  0
 47 42  1  0  0  0  0
 47 49  1  0  0  0  0
 48 47  1  0  0  0  0
 50 55  1  0  0  0  0
 51 50  2  0  0  0  0
 51 52  1  0  0  0  0
 52 53  2  0  0  0  0
 53 54  1  0  0  0  0
 53 47  1  0  0  0  0
 54 58  1  0  0  0  0
 55 59  1  0  0  0  0
 55 54  2  0  0  0  0
 56 51  1  0  0  0  0
 57 52  1  0  0  0  0
 60 62  1  0  0  0  0
 60 50  1  0  0  0  0
 61 60  1  0  0  0  0
 63 60  1  0  0  0  0
M  END
>  <MODEL>
31

>  <REMARK>
 VINA RESULT:    -6.445      3.240      9.116
 INTER + INTRA:         -10.315
 INTER:                  -9.120
 INTRA:                  -1.195
 UNBOUND:                -0.856
  Name = 
  9 active torsions:
  status: ('A' for Active; 'I' for Inactive)
    1  A    between atoms: C_1  and  C_2
    2  A    between atoms: C_5  and  C_6
    3  A    between atoms: C_6  and  N_7
    4  A    between atoms: N_7  and  C_8
    5  A    between atoms: N_7  and  C_9
    6  A    between atoms: C_12  and  C_13
    7  A    between atoms: C_13  and  N_14
    8  A    between atoms: N_17  and  C_18
    9  A    between atoms: C_27  and  C_28
                            x       y       z     vdW  Elec       q    Type
                         _______ _______ _______ _____ _____    ______ ____

>  <TORSDO>
F 9

$$$$
=
 OpenBabel07192307433D

 63 66  0  0  1  0  0  0  0  0999 V2000
    0.0100   12.7750   20.8860 C   0  0  0  0  0  0  0  0  0  0  0  0
   -0.0750   12.0420   22.0780 C   0  0  0  0  0  0  0  0  0  0  0  0
    0.1320   10.6580   22.1130 C   0  0  0  0  0  0  0  0  0  0  0  0
    0.4280    9.9420   20.9450 C   0  0  0  0  0  0  0  0  0  0  0  0
    0.4860   10.6510   19.7330 C   0  0  0  0  0  0  0  0  0  0  0  0
    0.2870   12.0470   19.7190 C   0  0  0  0  0  0  0  0  0  0  0  0
   -0.3430   12.5380   23.0080 H   0  0  0  0  0  0  0  0  0  0  0  0
    0.0290   10.1370   23.0630 H   0  0  0  0  0  0  0  0  0  0  0  0
    0.3980   12.5730   18.7750 H   0  0  0  0  0  0  0  0  0  0  0  0
    0.7560    9.9560   18.4410 C   0  0  0  0  0  0  0  0  0  0  0  0
   -0.3330    9.6480   17.6740 N   0  0  0  0  0  0  0  0  0  0  0  0
    1.8800    9.6410   18.0760 O   0  0  0  0  0  0  0  0  0  0  0  0
   -1.2780    9.7000   18.0290 H   0  0  0  0  0  0  0  0  0  0  0  0
   -0.1630    9.1150   16.8330 H   0  0  0  0  0  0  0  0  0  0  0  0
    0.6110    8.4480   21.0360 C   0  0  0  0  0  0  0  0  0  0  0  0
    0.6470    8.1220   22.0800 H   0  0  0  0  0  0  0  0  0  0  0  0
   -0.2410    7.9210   20.5860 H   0  0  0  0  0  0  0  0  0  0  0  0
    1.8260    8.0300   20.3760 N   0  0  0  0  0  0  0  0  0  0  0  0
    2.0060    6.7400   19.9660 C   0  0  0  0  0  0  0  0  0  0  0  0
    1.1860    5.8450   20.1150 O   0  0  0  0  0  0  0  0  0  0  0  0
    3.2160    6.5880   19.3400 N   0  0  0  0  0  0  0  0  0  0  0  0
    2.6570    8.5670   20.5870 H   0  0  0  0  0  0  0  0  0  0  0  0
    3.5220    7.4210   18.8660 H   0  0  0  0  0  0  0  0  0  0  0  0
    3.5120    5.3320   18.6870 C   0  0  2  0  0  0  0  0  0  0  0  0
    4.2730    4.3540   19.6090 C   0  0  0  0  0  0  0  0  0  0  0  0
    5.1070    3.4580   18.6870 C   0  0  0  0  0  0  0  0  0  0  0  0
    5.3880    4.3860   17.5480 C   0  0  0  0  0  0  0  0  0  0  0  0
    6.3380    4.2410   16.5520 C   0  0  0  0  0  0  0  0  0  0  0  0
    6.3900    5.2010   15.5390 C   0  0  0  0  0  0  0  0  0  0  0  0
    5.4870    6.2740   15.5270 C   0  0  0  0  0  0  0  0  0  0  0  0
    4.5210    6.4060   16.5270 C   0  0  0  0  0  0  0  0  0  0  0  0
    4.4850    5.4600   17.5430 C   0  0  0  0  0  0  0  0  0  0  0  0
    2.5820    4.8790   18.3200 H   0  0  0  0  0  0  0  0  0  0  0  0
    3.5990    3.7720   20.2490 H   0  0  0  0  0  0  0  0  0  0  0  0
    4.9460    4.9090   20.2760 H   0  0  0  0  0  0  0  0  0  0  0  0
    4.5230    2.6000   18.3380 H   0  0  0  0  0  0  0  0  0  0  0  0
    6.0190    3.1120   19.1790 H   0  0  0  0  0  0  0  0  0  0  0  0
    7.0260    3.4000   16.5520 H   0  0  0  0  0  0  0  0  0  0  0  0
    7.1290    5.1060   14.7470 H   0  0  0  0  0  0  0  0  0  0  0  0
    5.5340    7.0040   14.7220 H   0  0  0  0  0  0  0  0  0  0  0  0
    3.8100    7.2250   16.4910 H   0  0  0  0  0  0  0  0  0  0  0  0
   -0.2070   14.1560   20.8870 N   0  0  0  0  0  0  0  0  0  0  0  0
    0.6730   15.0110   21.6810 C   0  0  0  0  0  0  0  0  0  0  0  0
    1.5690   14.4640   21.9950 H   0  0  0  0  0  0  0  0  0  0  0  0
    0.1620   15.4080   22.5670 H   0  0  0  0  0  0  0  0  0  0  0  0
    1.0170   15.8640   21.0810 H   0  0  0  0  0  0  0  0  0  0  0  0
   -1.5980   14.6230   20.7450 C   0  0  0  0  0  0  0  0  0  0  0  0
   -1.6150   15.7180   20.8230 H   0  0  0  0  0  0  0  0  0  0  0  0
   -2.0110   14.4200   19.7510 H   0  0  0  0  0  0  0  0  0  0  0  0
   -4.1900   12.9170   23.7720 C   0  0  0  0  0  0  0  0  0  0  0  0
   -4.3850   12.6160   22.4200 C   0  0  0  0  0  0  0  0  0  0  0  0
   -3.5510   13.1680   21.4440 C   0  0  0  0  0  0  0  0  0  0  0  0
   -2.5170   14.0440   21.8010 C   0  0  0  0  0  0  0  0  0  0  0  0
   -2.3370   14.3570   23.1560 C   0  0  0  0  0  0  0  0  0  0  0  0
   -3.1690   13.8010   24.1310 C   0  0  0  0  0  0  0  0  0  0  0  0
   -5.1810   11.9410   22.1150 H   0  0  0  0  0  0  0  0  0  0  0  0
   -3.7110   12.9070   20.4010 H   0  0  0  0  0  0  0  0  0  0  0  0
   -1.5440   15.0370   23.4620 H   0  0  0  0  0  0  0  0  0  0  0  0
   -3.0090   14.0580   25.1740 H   0  0  0  0  0  0  0  0  0  0  0  0
   -5.1000   12.3380   24.8150 C   0  0  0  0  0  0  0  0  0  0  0  0
   -5.8340   11.6760   24.3440 H   0  0  0  0  0  0  0  0  0  0  0  0
   -5.6330   13.1290   25.3530 H   0  0  0  0  0  0  0  0  0  0  0  0
   -4.5290   11.7680   25.5550 H   0  0  0  0  0  0  0  0  0  0  0  0
  1 42  1  0  0  0  0
  1  2  1  0  0  0  0
  2  3  2  0  0  0  0
  2  7  1  0  0  0  0
  3  8  1  0  0  0  0
  4 15  1  0  0  0  0
  4  3  1  0  0  0  0
  5  4  2  0  0  0  0
  6  5  1  0  0  0  0
  6  1  2  0  0  0  0
  9  6  1  0  0  0  0
 10  5  1  0  0  0  0
 11 13  1  0  0  0  0
 11 10  1  0  0  0  0
 12 10  2  0  0  0  0
 14 11  1  0  0  0  0
 15 16  1  0  0  0  0
 17 15  1  0  0  0  0
 18 22  1  0  0  0  0
 18 15  1  0  0  0  0
 19 20  2  0  0  0  0
 19 18  1  0  0  0  0
 21 19  1  0  0  0  0
 23 21  1  0  0  0  0
 24 33  1  6  0  0  0
 24 21  1  0  0  0  0
 24 25  1  0  0  0  0
 25 34  1  0  0  0  0
 25 35  1  0  0  0  0
 26 37  1  0  0  0  0
 26 25  1  0  0  0  0
 27 26  1  0  0  0  0
 28 27  2  0  0  0  0
 29 28  1  0  0  0  0
 30 29  2  0  0  0  0
 30 31  1  0  0  0  0
 31 32  2  0  0  0  0
 32 27  1  0  0  0  0
 32 24  1  0  0  0  0
 36 26  1  0  0  0  0
 38 28  1  0  0  0  0
 39 29  1  0  0  0  0
 40 30  1  0  0  0  0
 41 31  1  0  0  0  0
 42 43  1  0  0  0  0
 43 44  1  0  0  0  0
 43 45  1  0  0  0  0
 46 43  1  0  0  0  0
 47 48  1  0  0  0  0
 47 42  1  0  0  0  0
 47 53  1  0  0  0  0
 49 47  1  0  0  0  0
 50 55  1  0  0  0  0
 50 60  1  0  0  0  0
 51 50  2  0  0  0  0
 52 53  2  0  0  0  0
 52 51  1  0  0  0  0
 53 54  1  0  0  0  0
 54 58  1  0  0  0  0
 54 55  2  0  0  0  0
 55 59  1  0  0  0  0
 56 51  1  0  0  0  0
 57 52  1  0  0  0  0
 60 62  1  0  0  0  0
 60 63  1  0  0  0  0
 61 60  1  0  0  0  0
M  END
>  <MODEL>
32

>  <REMARK>
 VINA RESULT:    -6.386      2.557      9.805
 INTER + INTRA:         -10.229
 INTER:                  -9.532
 INTRA:                  -0.696
 UNBOUND:                -0.856
  Name = 
  9 active torsions:
  status: ('A' for Active; 'I' for Inactive)
    1  A    between atoms: C_1  and  C_2
    2  A    between atoms: C_5  and  C_6
    3  A    between atoms: C_6  and  N_7
    4  A    between atoms: N_7  and  C_8
    5  A    between atoms: N_7  and  C_9
    6  A    between atoms: C_12  and  C_13
    7  A    between atoms: C_13  and  N_14
    8  A    between atoms: N_17  and  C_18
    9  A    between atoms: C_27  and  C_28
                            x       y       z     vdW  Elec       q    Type
                         _______ _______ _______ _____ _____    ______ ____

>  <TORSDO>
F 9

$$$$
