=
 OpenBabel07192307433D

 62 66  0  0  1  0  0  0  0  0999 V2000
    1.5400    6.2800   21.0130 N   0  0  0  0  0  0  0  0  0  0  0  0
    1.7410    7.4290   20.2730 C   0  0  0  0  0  0  0  0  0  0  0  0
    2.4190    7.5580   19.2610 O   0  0  0  0  0  0  0  0  0  0  0  0
    0.9320    6.4090   21.8200 H   0  0  0  0  0  0  0  0  0  0  0  0
    3.0900    3.4500   19.1940 C   0  0  0  0  0  0  0  0  0  0  0  0
    2.5500    4.7100   19.5110 C   0  0  0  0  0  0  0  0  0  0  0  0
    2.0770    4.9990   20.7990 C   0  0  0  0  0  0  0  0  0  0  0  0
    2.1560    4.0160   21.7860 C   0  0  0  0  0  0  0  0  0  0  0  0
    2.6950    2.7620   21.4890 C   0  0  0  0  0  0  0  0  0  0  0  0
    3.1590    2.4800   20.2040 C   0  0  0  0  0  0  0  0  0  0  0  0
    2.5000    5.4780   18.7420 H   0  0  0  0  0  0  0  0  0  0  0  0
    1.8010    4.1930   22.7970 H   0  0  0  0  0  0  0  0  0  0  0  0
    2.7500    2.0030   22.2660 H   0  0  0  0  0  0  0  0  0  0  0  0
    3.5760    1.4970   19.9990 H   0  0  0  0  0  0  0  0  0  0  0  0
    3.6380    3.1250   17.8090 C   0  0  1  0  0  0  0  0  0  0  0  0
    4.6040    2.6160   17.9440 H   0  0  0  0  0  0  0  0  0  0  0  0
    2.7290    2.1460   17.0510 C   0  0  0  0  0  0  0  0  0  0  0  0
    2.2940    2.6240   16.1640 H   0  0  0  0  0  0  0  0  0  0  0  0
    3.2710    1.2540   16.7180 H   0  0  0  0  0  0  0  0  0  0  0  0
    1.9000    1.8060   17.6790 H   0  0  0  0  0  0  0  0  0  0  0  0
    3.8700    4.4370   17.0280 C   0  0  0  0  0  0  0  0  0  0  0  0
    3.0640    4.5830   16.2960 H   0  0  0  0  0  0  0  0  0  0  0  0
    3.8200    5.2870   17.7220 H   0  0  0  0  0  0  0  0  0  0  0  0
    5.1890    4.5030   16.3310 C   0  0  0  0  0  0  0  0  0  0  0  0
    5.4440    4.2490   15.0630 N   0  0  0  0  0  0  0  0  0  0  0  0
    6.7910    4.4260   14.8490 N   0  0  0  0  0  0  0  0  0  0  0  0
    7.3320    4.7720   15.9930 C   0  0  0  0  0  0  0  0  0  0  0  0
    6.3680    4.8300   16.9490 N   0  0  0  0  0  0  0  0  0  0  0  0
    8.3790    4.9810   16.1650 H   0  0  0  0  0  0  0  0  0  0  0  0
    6.5660    5.1610   18.3350 C   0  0  0  0  0  0  0  0  0  0  0  0
    5.7850    5.8630   18.6390 H   0  0  0  0  0  0  0  0  0  0  0  0
    6.5110    4.2430   18.9270 H   0  0  0  0  0  0  0  0  0  0  0  0
    7.5490    5.6230   18.4650 H   0  0  0  0  0  0  0  0  0  0  0  0
    1.0210    8.6190   20.8370 C   0  0  0  0  0  0  0  0  0  0  0  0
    0.7430    8.5740   22.1730 N   0  0  0  0  0  0  0  0  0  0  0  0
    0.0970    9.6410   22.6950 C   0  0  0  0  0  0  0  0  0  0  0  0
   -0.2670   10.7500   21.9560 C   0  0  0  0  0  0  0  0  0  0  0  0
    0.0560   10.7680   20.6000 C   0  0  0  0  0  0  0  0  0  0  0  0
    0.6880    9.6790   20.0120 C   0  0  0  0  0  0  0  0  0  0  0  0
   -0.1280    9.5780   23.7560 H   0  0  0  0  0  0  0  0  0  0  0  0
   -0.7980   11.5780   22.4170 H   0  0  0  0  0  0  0  0  0  0  0  0
    0.8980    9.6470   18.9480 H   0  0  0  0  0  0  0  0  0  0  0  0
   -0.3680   11.9270   19.7920 C   0  0  0  0  0  0  0  0  0  0  0  0
   -1.5140   11.9210   19.3500 O   0  0  0  0  0  0  0  0  0  0  0  0
    0.5200   12.9720   19.5970 N   0  0  0  0  0  0  0  0  0  0  0  0
    0.1010   14.1320   18.8230 C   0  0  0  0  0  0  0  0  0  0  0  0
    1.0280   15.2480   19.2710 C   0  0  0  0  0  0  0  0  0  0  0  0
    2.2860   14.4780   19.6290 C   0  0  2  0  0  0  0  0  0  0  0  0
    1.8000   13.1820   20.2720 C   0  0  0  0  0  0  0  0  0  0  0  0
    3.4070   15.2110   20.3760 C   0  0  0  0  0  0  0  0  0  0  0  0
    4.4120   14.5970   19.5300 O   0  0  0  0  0  0  0  0  0  0  0  0
    3.3860   14.2370   18.5590 C   0  0  2  0  0  0  0  0  0  0  0  0
    3.4880   15.2670   17.0990 Cl  0  0  0  0  0  0  0  0  0  0  0  0
   -0.9550   14.3720   18.9870 H   0  0  0  0  0  0  0  0  0  0  0  0
    0.2510   13.8900   17.7650 H   0  0  0  0  0  0  0  0  0  0  0  0
    0.6160   15.7270   20.1700 H   0  0  0  0  0  0  0  0  0  0  0  0
    1.1560   16.0220   18.5130 H   0  0  0  0  0  0  0  0  0  0  0  0
    1.5940   13.3070   21.3400 H   0  0  0  0  0  0  0  0  0  0  0  0
    2.4770   12.3380   20.1310 H   0  0  0  0  0  0  0  0  0  0  0  0
    3.5400   14.9420   21.4290 H   0  0  0  0  0  0  0  0  0  0  0  0
    3.4220   16.3010   20.2740 H   0  0  0  0  0  0  0  0  0  0  0  0
    3.5040   13.1970   18.2370 H   0  0  0  0  0  0  0  0  0  0  0  0
  1  4  1  0  0  0  0
  2 34  1  0  0  0  0
  2  1  1  0  0  0  0
  3  2  2  0  0  0  0
  5  6  2  0  0  0  0
  5 10  1  0  0  0  0
  6  7  1  0  0  0  0
  7  1  1  0  0  0  0
  7  8  2  0  0  0  0
  8 12  1  0  0  0  0
  9  8  1  0  0  0  0
  9 13  1  0  0  0  0
 10  9  2  0  0  0  0
 11  6  1  0  0  0  0
 14 10  1  0  0  0  0
 15 16  1  1  0  0  0
 15  5  1  0  0  0  0
 17 20  1  0  0  0  0
 17 15  1  0  0  0  0
 18 17  1  0  0  0  0
 19 17  1  0  0  0  0
 21 23  1  0  0  0  0
 21 15  1  0  0  0  0
 22 21  1  0  0  0  0
 24 28  1  0  0  0  0
 24 21  1  0  0  0  0
 25 24  2  0  0  0  0
 26 25  1  0  0  0  0
 26 27  2  0  0  0  0
 27 29  1  0  0  0  0
 27 28  1  0  0  0  0
 28 30  1  0  0  0  0
 30 33  1  0  0  0  0
 30 31  1  0  0  0  0
 30 32  1  0  0  0  0
 34 35  1  0  0  0  0
 35 36  2  0  0  0  0
 36 40  1  0  0  0  0
 37 41  1  0  0  0  0
 37 36  1  0  0  0  0
 38 37  2  0  0  0  0
 39 38  1  0  0  0  0
 39 34  2  0  0  0  0
 42 39  1  0  0  0  0
 43 38  1  0  0  0  0
 44 43  2  0  0  0  0
 45 43  1  0  0  0  0
 45 49  1  0  0  0  0
 46 54  1  0  0  0  0
 46 47  1  0  0  0  0
 46 45  1  0  0  0  0
 47 56  1  0  0  0  0
 48 47  1  6  0  0  0
 48 49  1  0  0  0  0
 48 50  1  0  0  0  0
 49 58  1  0  0  0  0
 50 60  1  0  0  0  0
 51 50  1  0  0  0  0
 52 62  1  6  0  0  0
 52 51  1  0  0  0  0
 52 48  1  0  0  0  0
 53 52  1  0  0  0  0
 55 46  1  0  0  0  0
 57 47  1  0  0  0  0
 59 49  1  0  0  0  0
 61 50  1  0  0  0  0
M  END
>  <MODEL>
1

>  <REMARK>
 VINA RESULT:    -9.025      0.000      0.000
 INTER + INTRA:         -12.359
 INTER:                 -11.734
 INTRA:                  -0.625
 UNBOUND:                 0.359
  Name = 
  8 active torsions:
  status: ('A' for Active; 'I' for Inactive)
    1  A    between atoms: C_1  and  C_2
    2  A    between atoms: C_2  and  C_3
    3  A    between atoms: C_2  and  C_10
    4  A    between atoms: C_3  and  C_4
    5  A    between atoms: N_8  and  C_9
    6  A    between atoms: C_12  and  N_16
    7  A    between atoms: C_17  and  C_19
    8  A    between atoms: C_23  and  C_25
                            x       y       z     vdW  Elec       q    Type
                         _______ _______ _______ _____ _____    ______ ____

>  <TORSDO>
F 8

$$$$
=
 OpenBabel07192307433D

 62 66  0  0  1  0  0  0  0  0999 V2000
    2.1870    6.7400   18.9720 N   0  0  0  0  0  0  0  0  0  0  0  0
    1.8480    6.7970   20.3100 C   0  0  0  0  0  0  0  0  0  0  0  0
    1.9270    5.8990   21.1400 O   0  0  0  0  0  0  0  0  0  0  0  0
    2.0400    7.6140   18.4700 H   0  0  0  0  0  0  0  0  0  0  0  0
    4.5180    4.7470   16.8940 C   0  0  0  0  0  0  0  0  0  0  0  0
    3.9470    5.7820   17.6580 C   0  0  0  0  0  0  0  0  0  0  0  0
    2.6790    5.6450   18.2410 C   0  0  0  0  0  0  0  0  0  0  0  0
    1.9800    4.4510   18.0680 C   0  0  0  0  0  0  0  0  0  0  0  0
    2.5350    3.4120   17.3170 C   0  0  0  0  0  0  0  0  0  0  0  0
    3.7940    3.5570   16.7360 C   0  0  0  0  0  0  0  0  0  0  0  0
    4.5000    6.7070   17.8010 H   0  0  0  0  0  0  0  0  0  0  0  0
    0.9940    4.2990   18.4990 H   0  0  0  0  0  0  0  0  0  0  0  0
    1.9790    2.4860   17.1870 H   0  0  0  0  0  0  0  0  0  0  0  0
    4.2060    2.7320   16.1590 H   0  0  0  0  0  0  0  0  0  0  0  0
    5.9080    4.8640   16.2780 C   0  0  1  0  0  0  0  0  0  0  0  0
    6.0030    5.8760   15.8590 H   0  0  0  0  0  0  0  0  0  0  0  0
    7.0140    4.7220   17.3360 C   0  0  0  0  0  0  0  0  0  0  0  0
    6.6040    4.8410   18.3470 H   0  0  0  0  0  0  0  0  0  0  0  0
    7.5060    3.7440   17.2880 H   0  0  0  0  0  0  0  0  0  0  0  0
    7.7890    5.4820   17.2050 H   0  0  0  0  0  0  0  0  0  0  0  0
    6.0510    3.8340   15.1360 C   0  0  0  0  0  0  0  0  0  0  0  0
    6.5710    2.9390   15.5030 H   0  0  0  0  0  0  0  0  0  0  0  0
    5.0530    3.5080   14.8130 H   0  0  0  0  0  0  0  0  0  0  0  0
    6.7620    4.3600   13.9320 C   0  0  0  0  0  0  0  0  0  0  0  0
    7.6860    5.2990   13.8880 N   0  0  0  0  0  0  0  0  0  0  0  0
    8.0620    5.4740   12.5770 N   0  0  0  0  0  0  0  0  0  0  0  0
    7.3530    4.6470   11.8470 C   0  0  0  0  0  0  0  0  0  0  0  0
    6.5230    3.9320   12.6520 N   0  0  0  0  0  0  0  0  0  0  0  0
    7.4060    4.5390   10.7720 H   0  0  0  0  0  0  0  0  0  0  0  0
    5.5790    2.9330   12.2260 C   0  0  0  0  0  0  0  0  0  0  0  0
    5.3820    3.0750   11.1600 H   0  0  0  0  0  0  0  0  0  0  0  0
    6.0060    1.9440   12.4110 H   0  0  0  0  0  0  0  0  0  0  0  0
    4.6500    3.0440   12.7910 H   0  0  0  0  0  0  0  0  0  0  0  0
    1.3230    8.1400   20.7220 C   0  0  0  0  0  0  0  0  0  0  0  0
    1.1730    8.3420   22.0640 N   0  0  0  0  0  0  0  0  0  0  0  0
    0.7040    9.5490   22.4480 C   0  0  0  0  0  0  0  0  0  0  0  0
    0.3950   10.5660   21.5650 C   0  0  0  0  0  0  0  0  0  0  0  0
    0.5840   10.3300   20.2040 C   0  0  0  0  0  0  0  0  0  0  0  0
    1.0310    9.0910   19.7590 C   0  0  0  0  0  0  0  0  0  0  0  0
    0.5780    9.6830   23.5190 H   0  0  0  0  0  0  0  0  0  0  0  0
    0.0070   11.5160   21.9210 H   0  0  0  0  0  0  0  0  0  0  0  0
    1.1320    8.8660   18.7030 H   0  0  0  0  0  0  0  0  0  0  0  0
    0.2150   11.3920   19.2480 C   0  0  0  0  0  0  0  0  0  0  0  0
   -0.7620   11.1930   18.5300 O   0  0  0  0  0  0  0  0  0  0  0  0
    0.9530   12.5630   19.2270 N   0  0  0  0  0  0  0  0  0  0  0  0
    0.5790   13.6270   18.3050 C   0  0  0  0  0  0  0  0  0  0  0  0
    1.1760   14.8850   18.9100 C   0  0  0  0  0  0  0  0  0  0  0  0
    2.3990   14.3350   19.6210 C   0  0  2  0  0  0  0  0  0  0  0  0
    1.9650   12.9890   20.1920 C   0  0  0  0  0  0  0  0  0  0  0  0
    3.1610   15.2530   20.5850 C   0  0  0  0  0  0  0  0  0  0  0  0
    4.4330   14.7960   20.0600 O   0  0  0  0  0  0  0  0  0  0  0  0
    3.7640   14.2580   18.8830 C   0  0  2  0  0  0  0  0  0  0  0  0
    4.0860   15.2670   17.4400 Cl  0  0  0  0  0  0  0  0  0  0  0  0
   -0.5060   13.6960   18.1800 H   0  0  0  0  0  0  0  0  0  0  0  0
    1.0350   13.3950   17.3370 H   0  0  0  0  0  0  0  0  0  0  0  0
    0.4760   15.3060   19.6440 H   0  0  0  0  0  0  0  0  0  0  0  0
    1.3780   15.6570   18.1650 H   0  0  0  0  0  0  0  0  0  0  0  0
    1.4710   13.0960   21.1640 H   0  0  0  0  0  0  0  0  0  0  0  0
    2.7760   12.2630   20.2770 H   0  0  0  0  0  0  0  0  0  0  0  0
    3.0540   15.0250   21.6510 H   0  0  0  0  0  0  0  0  0  0  0  0
    3.0360   16.3290   20.4270 H   0  0  0  0  0  0  0  0  0  0  0  0
    4.1190   13.2460   18.6620 H   0  0  0  0  0  0  0  0  0  0  0  0
  1  2  1  0  0  0  0
  2 34  1  0  0  0  0
  2  3  2  0  0  0  0
  4  1  1  0  0  0  0
  5  6  1  0  0  0  0
  6 11  1  0  0  0  0
  6  7  2  0  0  0  0
  7  1  1  0  0  0  0
  8  7  1  0  0  0  0
  8 12  1  0  0  0  0
  9  8  2  0  0  0  0
 10  5  2  0  0  0  0
 10  9  1  0  0  0  0
 13  9  1  0  0  0  0
 14 10  1  0  0  0  0
 15 16  1  6  0  0  0
 15  5  1  0  0  0  0
 15 17  1  0  0  0  0
 17 18  1  0  0  0  0
 19 17  1  0  0  0  0
 20 17  1  0  0  0  0
 21 22  1  0  0  0  0
 21 15  1  0  0  0  0
 23 21  1  0  0  0  0
 24 21  1  0  0  0  0
 25 24  2  0  0  0  0
 26 25  1  0  0  0  0
 27 26  2  0  0  0  0
 27 28  1  0  0  0  0
 28 24  1  0  0  0  0
 29 27  1  0  0  0  0
 30 32  1  0  0  0  0
 30 28  1  0  0  0  0
 30 33  1  0  0  0  0
 31 30  1  0  0  0  0
 34 35  1  0  0  0  0
 35 36  2  0  0  0  0
 36 40  1  0  0  0  0
 37 41  1  0  0  0  0
 37 36  1  0  0  0  0
 38 37  2  0  0  0  0
 39 38  1  0  0  0  0
 39 34  2  0  0  0  0
 42 39  1  0  0  0  0
 43 38  1  0  0  0  0
 44 43  2  0  0  0  0
 45 43  1  0  0  0  0
 45 49  1  0  0  0  0
 46 47  1  0  0  0  0
 46 45  1  0  0  0  0
 47 56  1  0  0  0  0
 48 47  1  6  0  0  0
 48 49  1  0  0  0  0
 48 50  1  0  0  0  0
 49 59  1  0  0  0  0
 49 58  1  0  0  0  0
 50 60  1  0  0  0  0
 51 50  1  0  0  0  0
 52 62  1  6  0  0  0
 52 48  1  0  0  0  0
 52 51  1  0  0  0  0
 53 52  1  0  0  0  0
 54 46  1  0  0  0  0
 55 46  1  0  0  0  0
 57 47  1  0  0  0  0
 61 50  1  0  0  0  0
M  END
>  <MODEL>
2

>  <REMARK>
 VINA RESULT:    -8.868      1.626      2.597
 INTER + INTRA:         -12.137
 INTER:                 -11.442
 INTRA:                  -0.696
 UNBOUND:                 0.359
  Name = 
  8 active torsions:
  status: ('A' for Active; 'I' for Inactive)
    1  A    between atoms: C_1  and  C_2
    2  A    between atoms: C_2  and  C_3
    3  A    between atoms: C_2  and  C_10
    4  A    between atoms: C_3  and  C_4
    5  A    between atoms: N_8  and  C_9
    6  A    between atoms: C_12  and  N_16
    7  A    between atoms: C_17  and  C_19
    8  A    between atoms: C_23  and  C_25
                            x       y       z     vdW  Elec       q    Type
                         _______ _______ _______ _____ _____    ______ ____

>  <TORSDO>
F 8

$$$$
=
 OpenBabel07192307433D

 62 66  0  0  1  0  0  0  0  0999 V2000
    2.1370    6.5140   18.9240 N   0  0  0  0  0  0  0  0  0  0  0  0
    1.8510    6.6090   20.2730 C   0  0  0  0  0  0  0  0  0  0  0  0
    1.9520    5.7320   21.1230 O   0  0  0  0  0  0  0  0  0  0  0  0
    1.9790    7.3770   18.4060 H   0  0  0  0  0  0  0  0  0  0  0  0
    4.3250    4.4660   16.7470 C   0  0  0  0  0  0  0  0  0  0  0  0
    3.7990    5.5250   17.5100 C   0  0  0  0  0  0  0  0  0  0  0  0
    2.5880    5.3940   18.2040 C   0  0  0  0  0  0  0  0  0  0  0  0
    1.9000    4.1820   18.1440 C   0  0  0  0  0  0  0  0  0  0  0  0
    2.4120    3.1190   17.3960 C   0  0  0  0  0  0  0  0  0  0  0  0
    3.6140    3.2580   16.7040 C   0  0  0  0  0  0  0  0  0  0  0  0
    4.3440    6.4650   17.5640 H   0  0  0  0  0  0  0  0  0  0  0  0
    0.9580    4.0340   18.6640 H   0  0  0  0  0  0  0  0  0  0  0  0
    1.8660    2.1790   17.3550 H   0  0  0  0  0  0  0  0  0  0  0  0
    3.9930    2.4140   16.1320 H   0  0  0  0  0  0  0  0  0  0  0  0
    5.6550    4.5760   16.0110 C   0  0  1  0  0  0  0  0  0  0  0  0
    6.3140    3.7820   16.3920 H   0  0  0  0  0  0  0  0  0  0  0  0
    5.4940    4.3250   14.5030 C   0  0  0  0  0  0  0  0  0  0  0  0
    4.6360    4.8820   14.1050 H   0  0  0  0  0  0  0  0  0  0  0  0
    6.3810    4.6290   13.9380 H   0  0  0  0  0  0  0  0  0  0  0  0
    5.3220    3.2660   14.2920 H   0  0  0  0  0  0  0  0  0  0  0  0
    6.2970    5.9470   16.3130 C   0  0  0  0  0  0  0  0  0  0  0  0
    6.9190    6.2640   15.4650 H   0  0  0  0  0  0  0  0  0  0  0  0
    5.5070    6.7020   16.4230 H   0  0  0  0  0  0  0  0  0  0  0  0
    7.1170    5.9700   17.5620 C   0  0  0  0  0  0  0  0  0  0  0  0
    7.3850    4.9630   18.3680 N   0  0  0  0  0  0  0  0  0  0  0  0
    8.1670    5.4300   19.3980 N   0  0  0  0  0  0  0  0  0  0  0  0
    8.3500    6.7150   19.2060 C   0  0  0  0  0  0  0  0  0  0  0  0
    7.7090    7.0980   18.0710 N   0  0  0  0  0  0  0  0  0  0  0  0
    8.9180    7.3800   19.8420 H   0  0  0  0  0  0  0  0  0  0  0  0
    7.6620    8.4300   17.5300 C   0  0  0  0  0  0  0  0  0  0  0  0
    8.5610    8.9640   17.8460 H   0  0  0  0  0  0  0  0  0  0  0  0
    7.6140    8.3650   16.4390 H   0  0  0  0  0  0  0  0  0  0  0  0
    6.7740    8.9470   17.9050 H   0  0  0  0  0  0  0  0  0  0  0  0
    1.3570    7.9690   20.6690 C   0  0  0  0  0  0  0  0  0  0  0  0
    1.2720    8.2100   22.0100 N   0  0  0  0  0  0  0  0  0  0  0  0
    0.8320    9.4330   22.3810 C   0  0  0  0  0  0  0  0  0  0  0  0
    0.4900   10.4270   21.4840 C   0  0  0  0  0  0  0  0  0  0  0  0
    0.6140   10.1500   20.1230 C   0  0  0  0  0  0  0  0  0  0  0  0
    1.0290    8.8950   19.6940 C   0  0  0  0  0  0  0  0  0  0  0  0
    0.7570    9.5990   23.4520 H   0  0  0  0  0  0  0  0  0  0  0  0
    0.1270   11.3900   21.8290 H   0  0  0  0  0  0  0  0  0  0  0  0
    1.0780    8.6390   18.6410 H   0  0  0  0  0  0  0  0  0  0  0  0
    0.2100   11.1880   19.1550 C   0  0  0  0  0  0  0  0  0  0  0  0
   -0.7370   10.9330   18.4150 O   0  0  0  0  0  0  0  0  0  0  0  0
    0.8820   12.3970   19.1470 N   0  0  0  0  0  0  0  0  0  0  0  0
    0.4720   13.4370   18.2120 C   0  0  0  0  0  0  0  0  0  0  0  0
    0.9850   14.7280   18.8260 C   0  0  0  0  0  0  0  0  0  0  0  0
    2.2190   14.2480   19.5680 C   0  0  2  0  0  0  0  0  0  0  0  0
    1.8460   12.8810   20.1340 C   0  0  0  0  0  0  0  0  0  0  0  0
    2.9060   15.2080   20.5470 C   0  0  0  0  0  0  0  0  0  0  0  0
    4.2130   14.8210   20.0530 O   0  0  0  0  0  0  0  0  0  0  0  0
    3.6030   14.2450   18.8630 C   0  0  2  0  0  0  0  0  0  0  0  0
    3.9030   15.2660   17.4240 Cl  0  0  0  0  0  0  0  0  0  0  0  0
   -0.6120   13.4460   18.0620 H   0  0  0  0  0  0  0  0  0  0  0  0
    0.9630   13.2280   17.2560 H   0  0  0  0  0  0  0  0  0  0  0  0
    0.2450   15.1110   19.5430 H   0  0  0  0  0  0  0  0  0  0  0  0
    1.1610   15.5090   18.0840 H   0  0  0  0  0  0  0  0  0  0  0  0
    1.3240   12.9630   21.0930 H   0  0  0  0  0  0  0  0  0  0  0  0
    2.6930   12.2010   20.2410 H   0  0  0  0  0  0  0  0  0  0  0  0
    2.7860   14.9780   21.6110 H   0  0  0  0  0  0  0  0  0  0  0  0
    2.7260   16.2760   20.3820 H   0  0  0  0  0  0  0  0  0  0  0  0
    4.0180   13.2530   18.6540 H   0  0  0  0  0  0  0  0  0  0  0  0
  1  2  1  0  0  0  0
  2 34  1  0  0  0  0
  2  3  2  0  0  0  0
  4  1  1  0  0  0  0
  5  6  1  0  0  0  0
  6 11  1  0  0  0  0
  6  7  2  0  0  0  0
  7  1  1  0  0  0  0
  8  7  1  0  0  0  0
  8 12  1  0  0  0  0
  9  8  2  0  0  0  0
 10  5  2  0  0  0  0
 10  9  1  0  0  0  0
 13  9  1  0  0  0  0
 14 10  1  0  0  0  0
 15 21  1  0  0  0  0
 15 16  1  1  0  0  0
 15  5  1  0  0  0  0
 17 15  1  0  0  0  0
 18 17  1  0  0  0  0
 19 17  1  0  0  0  0
 20 17  1  0  0  0  0
 21 23  1  0  0  0  0
 21 24  1  0  0  0  0
 22 21  1  0  0  0  0
 24 28  1  0  0  0  0
 24 25  2  0  0  0  0
 25 26  1  0  0  0  0
 27 26  2  0  0  0  0
 27 29  1  0  0  0  0
 28 27  1  0  0  0  0
 30 31  1  0  0  0  0
 30 33  1  0  0  0  0
 30 28  1  0  0  0  0
 32 30  1  0  0  0  0
 34 35  1  0  0  0  0
 35 36  2  0  0  0  0
 36 40  1  0  0  0  0
 37 41  1  0  0  0  0
 37 36  1  0  0  0  0
 38 37  2  0  0  0  0
 39 38  1  0  0  0  0
 39 34  2  0  0  0  0
 42 39  1  0  0  0  0
 43 38  1  0  0  0  0
 44 43  2  0  0  0  0
 45 43  1  0  0  0  0
 45 49  1  0  0  0  0
 46 47  1  0  0  0  0
 46 45  1  0  0  0  0
 47 56  1  0  0  0  0
 48 47  1  6  0  0  0
 48 49  1  0  0  0  0
 48 50  1  0  0  0  0
 49 59  1  0  0  0  0
 49 58  1  0  0  0  0
 50 60  1  0  0  0  0
 51 50  1  0  0  0  0
 52 62  1  6  0  0  0
 52 48  1  0  0  0  0
 52 51  1  0  0  0  0
 53 52  1  0  0  0  0
 54 46  1  0  0  0  0
 55 46  1  0  0  0  0
 57 47  1  0  0  0  0
 61 50  1  0  0  0  0
M  END
>  <MODEL>
3

>  <REMARK>
 VINA RESULT:    -8.582      1.703      2.439
 INTER + INTRA:         -11.735
 INTER:                 -11.139
 INTRA:                  -0.595
 UNBOUND:                 0.359
  Name = 
  8 active torsions:
  status: ('A' for Active; 'I' for Inactive)
    1  A    between atoms: C_1  and  C_2
    2  A    between atoms: C_2  and  C_3
    3  A    between atoms: C_2  and  C_10
    4  A    between atoms: C_3  and  C_4
    5  A    between atoms: N_8  and  C_9
    6  A    between atoms: C_12  and  N_16
    7  A    between atoms: C_17  and  C_19
    8  A    between atoms: C_23  and  C_25
                            x       y       z     vdW  Elec       q    Type
                         _______ _______ _______ _____ _____    ______ ____

>  <TORSDO>
F 8

$$$$
=
 OpenBabel07192307433D

 62 66  0  0  1  0  0  0  0  0999 V2000
    2.2680    6.7160   19.0120 N   0  0  0  0  0  0  0  0  0  0  0  0
    1.9770    7.9890   18.5600 C   0  0  0  0  0  0  0  0  0  0  0  0
    2.0700    8.4160   17.4150 O   0  0  0  0  0  0  0  0  0  0  0  0
    2.1120    6.5860   20.0100 H   0  0  0  0  0  0  0  0  0  0  0  0
    4.5880    4.7210   16.9240 C   0  0  0  0  0  0  0  0  0  0  0  0
    4.0210    5.7560   17.6900 C   0  0  0  0  0  0  0  0  0  0  0  0
    2.7560    5.6200   18.2800 C   0  0  0  0  0  0  0  0  0  0  0  0
    2.0550    4.4260   18.1110 C   0  0  0  0  0  0  0  0  0  0  0  0
    2.6060    3.3860   17.3580 C   0  0  0  0  0  0  0  0  0  0  0  0
    3.8630    3.5310   16.7710 C   0  0  0  0  0  0  0  0  0  0  0  0
    4.5750    6.6810   17.8300 H   0  0  0  0  0  0  0  0  0  0  0  0
    1.0720    4.2750   18.5470 H   0  0  0  0  0  0  0  0  0  0  0  0
    2.0490    2.4600   17.2320 H   0  0  0  0  0  0  0  0  0  0  0  0
    4.2710    2.7050   16.1920 H   0  0  0  0  0  0  0  0  0  0  0  0
    5.9750    4.8360   16.3010 C   0  0  1  0  0  0  0  0  0  0  0  0
    6.0730    5.8530   15.8940 H   0  0  0  0  0  0  0  0  0  0  0  0
    7.0860    4.6760   17.3510 C   0  0  0  0  0  0  0  0  0  0  0  0
    7.0060    3.7060   17.8590 H   0  0  0  0  0  0  0  0  0  0  0  0
    8.0840    4.7390   16.9060 H   0  0  0  0  0  0  0  0  0  0  0  0
    7.0230    5.4530   18.1180 H   0  0  0  0  0  0  0  0  0  0  0  0
    6.1050    3.8190   15.1470 C   0  0  0  0  0  0  0  0  0  0  0  0
    6.6390    2.9250   15.4960 H   0  0  0  0  0  0  0  0  0  0  0  0
    5.1040    3.4870   14.8400 H   0  0  0  0  0  0  0  0  0  0  0  0
    6.7900    4.3620   13.9360 C   0  0  0  0  0  0  0  0  0  0  0  0
    7.6950    5.3180   13.8820 N   0  0  0  0  0  0  0  0  0  0  0  0
    8.0500    5.5040   12.5670 N   0  0  0  0  0  0  0  0  0  0  0  0
    7.3460    4.6670   11.8440 C   0  0  0  0  0  0  0  0  0  0  0  0
    6.5420    3.9330   12.6570 N   0  0  0  0  0  0  0  0  0  0  0  0
    7.3870    4.5630   10.7680 H   0  0  0  0  0  0  0  0  0  0  0  0
    5.6110    2.9190   12.2410 C   0  0  0  0  0  0  0  0  0  0  0  0
    5.1390    2.4950   13.1310 H   0  0  0  0  0  0  0  0  0  0  0  0
    4.8620    3.3740   11.5870 H   0  0  0  0  0  0  0  0  0  0  0  0
    6.1440    2.1340   11.6960 H   0  0  0  0  0  0  0  0  0  0  0  0
    1.5050    8.9020   19.6530 C   0  0  0  0  0  0  0  0  0  0  0  0
    1.4300    8.3550   20.9010 N   0  0  0  0  0  0  0  0  0  0  0  0
    1.0100    9.1670   21.8960 C   0  0  0  0  0  0  0  0  0  0  0  0
    0.6780   10.4960   21.7100 C   0  0  0  0  0  0  0  0  0  0  0  0
    0.7910   11.0230   20.4250 C   0  0  0  0  0  0  0  0  0  0  0  0
    1.1850   10.2170   19.3640 C   0  0  0  0  0  0  0  0  0  0  0  0
    0.9430    8.7080   22.8790 H   0  0  0  0  0  0  0  0  0  0  0  0
    0.3310   11.1060   22.5390 H   0  0  0  0  0  0  0  0  0  0  0  0
    1.2260   10.5910   18.3460 H   0  0  0  0  0  0  0  0  0  0  0  0
    0.3970   12.4280   20.2050 C   0  0  0  0  0  0  0  0  0  0  0  0
    1.1310   13.1190   19.5030 O   0  0  0  0  0  0  0  0  0  0  0  0
   -0.7830   12.8900   20.7620 N   0  0  0  0  0  0  0  0  0  0  0  0
   -1.1930   14.2680   20.5280 C   0  0  0  0  0  0  0  0  0  0  0  0
   -2.6930   14.2670   20.7640 C   0  0  0  0  0  0  0  0  0  0  0  0
   -2.8410   13.1660   21.7990 C   0  0  2  0  0  0  0  0  0  0  0  0
   -1.8310   12.0950   21.3990 C   0  0  0  0  0  0  0  0  0  0  0  0
   -4.2500   12.6610   22.1350 C   0  0  0  0  0  0  0  0  0  0  0  0
   -3.9380   12.6470   23.5510 O   0  0  0  0  0  0  0  0  0  0  0  0
   -2.7840   13.5050   23.3140 C   0  0  2  0  0  0  0  0  0  0  0  0
   -3.0860   15.1700   23.8950 Cl  0  0  0  0  0  0  0  0  0  0  0  0
   -0.9270   14.6080   19.5220 H   0  0  0  0  0  0  0  0  0  0  0  0
   -0.6740   14.8920   21.2640 H   0  0  0  0  0  0  0  0  0  0  0  0
   -3.2090   13.9800   19.8380 H   0  0  0  0  0  0  0  0  0  0  0  0
   -3.0740   15.2440   21.0660 H   0  0  0  0  0  0  0  0  0  0  0  0
   -2.2350   11.4130   20.6420 H   0  0  0  0  0  0  0  0  0  0  0  0
   -1.4470   11.5150   22.2390 H   0  0  0  0  0  0  0  0  0  0  0  0
   -4.5040   11.6630   21.7630 H   0  0  0  0  0  0  0  0  0  0  0  0
   -5.0740   13.3500   21.9220 H   0  0  0  0  0  0  0  0  0  0  0  0
   -1.9030   13.1260   23.8440 H   0  0  0  0  0  0  0  0  0  0  0  0
  1  4  1  0  0  0  0
  2  1  1  0  0  0  0
  2 34  1  0  0  0  0
  3  2  2  0  0  0  0
  5  6  1  0  0  0  0
  6 11  1  0  0  0  0
  6  7  2  0  0  0  0
  7  1  1  0  0  0  0
  8  7  1  0  0  0  0
  8 12  1  0  0  0  0
  9  8  2  0  0  0  0
 10  5  2  0  0  0  0
 10  9  1  0  0  0  0
 13  9  1  0  0  0  0
 14 10  1  0  0  0  0
 15 16  1  6  0  0  0
 15  5  1  0  0  0  0
 15 17  1  0  0  0  0
 17 18  1  0  0  0  0
 17 20  1  0  0  0  0
 19 17  1  0  0  0  0
 21 22  1  0  0  0  0
 21 15  1  0  0  0  0
 23 21  1  0  0  0  0
 24 21  1  0  0  0  0
 25 24  2  0  0  0  0
 26 25  1  0  0  0  0
 27 26  2  0  0  0  0
 27 28  1  0  0  0  0
 28 24  1  0  0  0  0
 29 27  1  0  0  0  0
 30 28  1  0  0  0  0
 30 31  1  0  0  0  0
 32 30  1  0  0  0  0
 33 30  1  0  0  0  0
 34 35  1  0  0  0  0
 35 36  2  0  0  0  0
 36 40  1  0  0  0  0
 37 36  1  0  0  0  0
 37 41  1  0  0  0  0
 38 37  2  0  0  0  0
 39 34  2  0  0  0  0
 39 38  1  0  0  0  0
 42 39  1  0  0  0  0
 43 38  1  0  0  0  0
 43 45  1  0  0  0  0
 44 43  2  0  0  0  0
 45 49  1  0  0  0  0
 46 45  1  0  0  0  0
 46 47  1  0  0  0  0
 46 55  1  0  0  0  0
 47 57  1  0  0  0  0
 48 47  1  6  0  0  0
 48 50  1  0  0  0  0
 48 52  1  0  0  0  0
 49 48  1  0  0  0  0
 49 59  1  0  0  0  0
 50 51  1  0  0  0  0
 52 51  1  0  0  0  0
 52 62  1  1  0  0  0
 52 53  1  0  0  0  0
 54 46  1  0  0  0  0
 56 47  1  0  0  0  0
 58 49  1  0  0  0  0
 60 50  1  0  0  0  0
 61 50  1  0  0  0  0
M  END
>  <MODEL>
4

>  <REMARK>
 VINA RESULT:    -8.540      2.855      4.234
 INTER + INTRA:         -11.675
 INTER:                 -11.281
 INTRA:                  -0.394
 UNBOUND:                 0.359
  Name = 
  8 active torsions:
  status: ('A' for Active; 'I' for Inactive)
    1  A    between atoms: C_1  and  C_2
    2  A    between atoms: C_2  and  C_3
    3  A    between atoms: C_2  and  C_10
    4  A    between atoms: C_3  and  C_4
    5  A    between atoms: N_8  and  C_9
    6  A    between atoms: C_12  and  N_16
    7  A    between atoms: C_17  and  C_19
    8  A    between atoms: C_23  and  C_25
                            x       y       z     vdW  Elec       q    Type
                         _______ _______ _______ _____ _____    ______ ____

>  <TORSDO>
F 8

$$$$
=
 OpenBabel07192307433D

 62 66  0  0  1  0  0  0  0  0999 V2000
    2.3150    6.7270   19.0370 N   0  0  0  0  0  0  0  0  0  0  0  0
    1.8550    6.7680   20.3400 C   0  0  0  0  0  0  0  0  0  0  0  0
    1.7820    5.8410   21.1370 O   0  0  0  0  0  0  0  0  0  0  0  0
    2.2870    7.6270   18.5600 H   0  0  0  0  0  0  0  0  0  0  0  0
    4.5770    4.7020   16.9150 C   0  0  0  0  0  0  0  0  0  0  0  0
    4.0300    5.7500   17.6780 C   0  0  0  0  0  0  0  0  0  0  0  0
    2.7860    5.6190   18.3120 C   0  0  0  0  0  0  0  0  0  0  0  0
    2.0870    4.4180   18.1910 C   0  0  0  0  0  0  0  0  0  0  0  0
    2.6200    3.3650   17.4430 C   0  0  0  0  0  0  0  0  0  0  0  0
    3.8550    3.5050   16.8100 C   0  0  0  0  0  0  0  0  0  0  0  0
    4.5820    6.6810   17.7800 H   0  0  0  0  0  0  0  0  0  0  0  0
    1.1200    4.2700   18.6630 H   0  0  0  0  0  0  0  0  0  0  0  0
    2.0650    2.4340   17.3540 H   0  0  0  0  0  0  0  0  0  0  0  0
    4.2490    2.6700   16.2360 H   0  0  0  0  0  0  0  0  0  0  0  0
    5.9410    4.8120   16.2430 C   0  0  1  0  0  0  0  0  0  0  0  0
    6.0330    5.8310   15.8400 H   0  0  0  0  0  0  0  0  0  0  0  0
    7.0880    4.6370   17.2520 C   0  0  0  0  0  0  0  0  0  0  0  0
    8.0110    4.3300   16.7430 H   0  0  0  0  0  0  0  0  0  0  0  0
    7.2990    5.5610   17.8000 H   0  0  0  0  0  0  0  0  0  0  0  0
    6.8520    3.8670   17.9920 H   0  0  0  0  0  0  0  0  0  0  0  0
    6.0230    3.8020   15.0780 C   0  0  0  0  0  0  0  0  0  0  0  0
    6.5150    2.8810   15.4170 H   0  0  0  0  0  0  0  0  0  0  0  0
    5.0080    3.5210   14.7690 H   0  0  0  0  0  0  0  0  0  0  0  0
    6.7310    4.3260   13.8720 C   0  0  0  0  0  0  0  0  0  0  0  0
    7.6420    5.2770   13.8210 N   0  0  0  0  0  0  0  0  0  0  0  0
    8.0210    5.4440   12.5100 N   0  0  0  0  0  0  0  0  0  0  0  0
    7.3250    4.6000   11.7860 C   0  0  0  0  0  0  0  0  0  0  0  0
    6.5030    3.8820   12.5950 N   0  0  0  0  0  0  0  0  0  0  0  0
    7.3840    4.4820   10.7130 H   0  0  0  0  0  0  0  0  0  0  0  0
    5.5740    2.8660   12.1760 C   0  0  0  0  0  0  0  0  0  0  0  0
    5.1890    3.1350   11.1890 H   0  0  0  0  0  0  0  0  0  0  0  0
    6.0960    1.9060   12.1380 H   0  0  0  0  0  0  0  0  0  0  0  0
    4.7490    2.8070   12.8910 H   0  0  0  0  0  0  0  0  0  0  0  0
    1.4030    8.1370   20.7540 C   0  0  0  0  0  0  0  0  0  0  0  0
    1.3060    8.3570   22.0990 N   0  0  0  0  0  0  0  0  0  0  0  0
    0.9030    9.5870   22.4860 C   0  0  0  0  0  0  0  0  0  0  0  0
    0.6080   10.6080   21.6030 C   0  0  0  0  0  0  0  0  0  0  0  0
    0.7420   10.3520   20.2390 C   0  0  0  0  0  0  0  0  0  0  0  0
    1.1200    9.0910   19.7920 C   0  0  0  0  0  0  0  0  0  0  0  0
    0.8190    9.7360   23.5590 H   0  0  0  0  0  0  0  0  0  0  0  0
    0.2740   11.5770   21.9610 H   0  0  0  0  0  0  0  0  0  0  0  0
    1.1750    8.8530   18.7360 H   0  0  0  0  0  0  0  0  0  0  0  0
    0.3870   11.4210   19.2850 C   0  0  0  0  0  0  0  0  0  0  0  0
    1.1910   12.3370   19.1370 O   0  0  0  0  0  0  0  0  0  0  0  0
   -0.8030   11.3270   18.5840 N   0  0  0  0  0  0  0  0  0  0  0  0
   -1.1490   12.3640   17.6210 C   0  0  0  0  0  0  0  0  0  0  0  0
   -2.1420   11.7000   16.6840 C   0  0  0  0  0  0  0  0  0  0  0  0
   -2.8100   10.6940   17.6040 C   0  0  2  0  0  0  0  0  0  0  0  0
   -1.6990   10.1740   18.5110 C   0  0  0  0  0  0  0  0  0  0  0  0
   -3.7190    9.6250   16.9850 C   0  0  0  0  0  0  0  0  0  0  0  0
   -4.7010    9.8120   18.0360 O   0  0  0  0  0  0  0  0  0  0  0  0
   -4.0890   11.0850   18.3930 C   0  0  2  0  0  0  0  0  0  0  0  0
   -5.1070   12.4610   17.8690 Cl  0  0  0  0  0  0  0  0  0  0  0  0
   -0.2670   12.7440   17.0970 H   0  0  0  0  0  0  0  0  0  0  0  0
   -1.6140   13.1850   18.1790 H   0  0  0  0  0  0  0  0  0  0  0  0
   -1.5990   11.1740   15.8880 H   0  0  0  0  0  0  0  0  0  0  0  0
   -2.8170   12.4150   16.2080 H   0  0  0  0  0  0  0  0  0  0  0  0
   -1.1410    9.3530   18.0460 H   0  0  0  0  0  0  0  0  0  0  0  0
   -2.0430    9.8630   19.4980 H   0  0  0  0  0  0  0  0  0  0  0  0
   -3.3230    8.6050   16.9740 H   0  0  0  0  0  0  0  0  0  0  0  0
   -4.1450    9.8620   16.0050 H   0  0  0  0  0  0  0  0  0  0  0  0
   -3.9630   11.1640   19.4790 H   0  0  0  0  0  0  0  0  0  0  0  0
  1  2  1  0  0  0  0
  2 34  1  0  0  0  0
  2  3  2  0  0  0  0
  4  1  1  0  0  0  0
  5  6  1  0  0  0  0
  6 11  1  0  0  0  0
  6  7  2  0  0  0  0
  7  1  1  0  0  0  0
  8  7  1  0  0  0  0
  8 12  1  0  0  0  0
  9  8  2  0  0  0  0
 10  5  2  0  0  0  0
 10  9  1  0  0  0  0
 13  9  1  0  0  0  0
 14 10  1  0  0  0  0
 15 16  1  6  0  0  0
 15  5  1  0  0  0  0
 15 17  1  0  0  0  0
 17 19  1  0  0  0  0
 17 20  1  0  0  0  0
 18 17  1  0  0  0  0
 21 22  1  0  0  0  0
 21 15  1  0  0  0  0
 23 21  1  0  0  0  0
 24 21  1  0  0  0  0
 25 24  2  0  0  0  0
 26 25  1  0  0  0  0
 27 26  2  0  0  0  0
 27 28  1  0  0  0  0
 28 24  1  0  0  0  0
 29 27  1  0  0  0  0
 30 28  1  0  0  0  0
 30 33  1  0  0  0  0
 31 30  1  0  0  0  0
 32 30  1  0  0  0  0
 34 35  1  0  0  0  0
 35 36  2  0  0  0  0
 36 40  1  0  0  0  0
 37 41  1  0  0  0  0
 37 36  1  0  0  0  0
 38 37  2  0  0  0  0
 39 38  1  0  0  0  0
 39 34  2  0  0  0  0
 42 39  1  0  0  0  0
 43 38  1  0  0  0  0
 44 43  2  0  0  0  0
 45 43  1  0  0  0  0
 46 55  1  0  0  0  0
 46 45  1  0  0  0  0
 47 46  1  0  0  0  0
 48 47  1  6  0  0  0
 48 52  1  0  0  0  0
 48 49  1  0  0  0  0
 49 45  1  0  0  0  0
 49 59  1  0  0  0  0
 50 48  1  0  0  0  0
 50 51  1  0  0  0  0
 51 52  1  0  0  0  0
 52 62  1  1  0  0  0
 53 52  1  0  0  0  0
 54 46  1  0  0  0  0
 56 47  1  0  0  0  0
 57 47  1  0  0  0  0
 58 49  1  0  0  0  0
 60 50  1  0  0  0  0
 61 50  1  0  0  0  0
M  END
>  <MODEL>
5

>  <REMARK>
 VINA RESULT:    -8.488      2.828      4.472
 INTER + INTRA:         -11.602
 INTER:                 -10.836
 INTRA:                  -0.766
 UNBOUND:                 0.359
  Name = 
  8 active torsions:
  status: ('A' for Active; 'I' for Inactive)
    1  A    between atoms: C_1  and  C_2
    2  A    between atoms: C_2  and  C_3
    3  A    between atoms: C_2  and  C_10
    4  A    between atoms: C_3  and  C_4
    5  A    between atoms: N_8  and  C_9
    6  A    between atoms: C_12  and  N_16
    7  A    between atoms: C_17  and  C_19
    8  A    between atoms: C_23  and  C_25
                            x       y       z     vdW  Elec       q    Type
                         _______ _______ _______ _____ _____    ______ ____

>  <TORSDO>
F 8

$$$$
=
 OpenBabel07192307433D

 62 66  0  0  1  0  0  0  0  0999 V2000
    1.9770    7.3200   19.7930 N   0  0  0  0  0  0  0  0  0  0  0  0
    1.2090    8.2080   20.5210 C   0  0  0  0  0  0  0  0  0  0  0  0
    0.5450    7.9750   21.5230 O   0  0  0  0  0  0  0  0  0  0  0  0
    2.4470    7.7390   18.9920 H   0  0  0  0  0  0  0  0  0  0  0  0
    2.9550    3.8160   19.0900 C   0  0  0  0  0  0  0  0  0  0  0  0
    2.7430    5.2020   18.9720 C   0  0  0  0  0  0  0  0  0  0  0  0
    2.1640    5.9440   20.0120 C   0  0  0  0  0  0  0  0  0  0  0  0
    1.8060    5.2910   21.1910 C   0  0  0  0  0  0  0  0  0  0  0  0
    2.0160    3.9160   21.3270 C   0  0  0  0  0  0  0  0  0  0  0  0
    2.5870    3.1840   20.2860 C   0  0  0  0  0  0  0  0  0  0  0  0
    3.0340    5.7100   18.0560 H   0  0  0  0  0  0  0  0  0  0  0  0
    1.3540    5.8220   22.0240 H   0  0  0  0  0  0  0  0  0  0  0  0
    1.7310    3.4170   22.2510 H   0  0  0  0  0  0  0  0  0  0  0  0
    2.7430    2.1160   20.4180 H   0  0  0  0  0  0  0  0  0  0  0  0
    3.6110    2.9970   17.9840 C   0  0  1  0  0  0  0  0  0  0  0  0
    4.4930    2.5010   18.4150 H   0  0  0  0  0  0  0  0  0  0  0  0
    2.6850    1.8810   17.4770 C   0  0  0  0  0  0  0  0  0  0  0  0
    2.5220    1.9700   16.3950 H   0  0  0  0  0  0  0  0  0  0  0  0
    3.0960    0.8850   17.6720 H   0  0  0  0  0  0  0  0  0  0  0  0
    1.7040    1.9270   17.9600 H   0  0  0  0  0  0  0  0  0  0  0  0
    4.0710    3.9400   16.8510 C   0  0  0  0  0  0  0  0  0  0  0  0
    3.8060    3.5090   15.8760 H   0  0  0  0  0  0  0  0  0  0  0  0
    3.5310    4.8930   16.9290 H   0  0  0  0  0  0  0  0  0  0  0  0
    5.5320    4.2480   16.8740 C   0  0  0  0  0  0  0  0  0  0  0  0
    6.2980    4.4400   17.9290 N   0  0  0  0  0  0  0  0  0  0  0  0
    7.5760    4.7030   17.4940 N   0  0  0  0  0  0  0  0  0  0  0  0
    7.5600    4.6800   16.1830 C   0  0  0  0  0  0  0  0  0  0  0  0
    6.3020    4.4020   15.7510 N   0  0  0  0  0  0  0  0  0  0  0  0
    8.4070    4.8530   15.5330 H   0  0  0  0  0  0  0  0  0  0  0  0
    5.8780    4.3020   14.3800 C   0  0  0  0  0  0  0  0  0  0  0  0
    5.4730    5.2700   14.0710 H   0  0  0  0  0  0  0  0  0  0  0  0
    6.7390    4.0300   13.7640 H   0  0  0  0  0  0  0  0  0  0  0  0
    5.1050    3.5330   14.2910 H   0  0  0  0  0  0  0  0  0  0  0  0
    1.2310    9.5970   19.9540 C   0  0  0  0  0  0  0  0  0  0  0  0
    1.6460    9.7110   18.6590 N   0  0  0  0  0  0  0  0  0  0  0  0
    1.6680   10.9570   18.1350 C   0  0  0  0  0  0  0  0  0  0  0  0
    1.2830   12.0860   18.8330 C   0  0  0  0  0  0  0  0  0  0  0  0
    0.8430   11.9250   20.1460 C   0  0  0  0  0  0  0  0  0  0  0  0
    0.8370   10.6680   20.7380 C   0  0  0  0  0  0  0  0  0  0  0  0
    2.0150   11.0270   17.1080 H   0  0  0  0  0  0  0  0  0  0  0  0
    1.3320   13.0690   18.3740 H   0  0  0  0  0  0  0  0  0  0  0  0
    0.5530   10.5270   21.7750 H   0  0  0  0  0  0  0  0  0  0  0  0
    0.4730   13.1290   20.9150 C   0  0  0  0  0  0  0  0  0  0  0  0
    1.3860   13.8400   21.3270 O   0  0  0  0  0  0  0  0  0  0  0  0
   -0.8670   13.4170   21.1070 N   0  0  0  0  0  0  0  0  0  0  0  0
   -1.2420   14.6180   21.8430 C   0  0  0  0  0  0  0  0  0  0  0  0
   -2.6600   14.9160   21.3920 C   0  0  0  0  0  0  0  0  0  0  0  0
   -3.1850   13.5260   21.0850 C   0  0  2  0  0  0  0  0  0  0  0  0
   -2.0120   12.7770   20.4610 C   0  0  0  0  0  0  0  0  0  0  0  0
   -4.5250   13.3940   20.3490 C   0  0  0  0  0  0  0  0  0  0  0  0
   -4.9390   12.3230   21.2360 O   0  0  0  0  0  0  0  0  0  0  0  0
   -3.9020   12.6990   22.1880 C   0  0  2  0  0  0  0  0  0  0  0  0
   -4.6050   13.5010   23.6250 Cl  0  0  0  0  0  0  0  0  0  0  0  0
   -0.5550   15.4470   21.6460 H   0  0  0  0  0  0  0  0  0  0  0  0
   -1.2060   14.3710   22.9090 H   0  0  0  0  0  0  0  0  0  0  0  0
   -2.6330   15.5160   20.4720 H   0  0  0  0  0  0  0  0  0  0  0  0
   -3.2310   15.4760   22.1350 H   0  0  0  0  0  0  0  0  0  0  0  0
   -1.9310   12.9650   19.3850 H   0  0  0  0  0  0  0  0  0  0  0  0
   -2.0290   11.7010   20.6390 H   0  0  0  0  0  0  0  0  0  0  0  0
   -4.4710   13.0630   19.3070 H   0  0  0  0  0  0  0  0  0  0  0  0
   -5.2040   14.2490   20.4260 H   0  0  0  0  0  0  0  0  0  0  0  0
   -3.3560   11.8160   22.5380 H   0  0  0  0  0  0  0  0  0  0  0  0
  1  7  1  0  0  0  0
  1  2  1  0  0  0  0
  2  3  2  0  0  0  0
  4  1  1  0  0  0  0
  5 10  1  0  0  0  0
  6  5  2  0  0  0  0
  6  7  1  0  0  0  0
  7  8  2  0  0  0  0
  8  9  1  0  0  0  0
  8 12  1  0  0  0  0
  9 13  1  0  0  0  0
 10 14  1  0  0  0  0
 10  9  2  0  0  0  0
 11  6  1  0  0  0  0
 15 16  1  1  0  0  0
 15  5  1  0  0  0  0
 17 19  1  0  0  0  0
 17 20  1  0  0  0  0
 17 15  1  0  0  0  0
 18 17  1  0  0  0  0
 21 24  1  0  0  0  0
 21 23  1  0  0  0  0
 21 15  1  0  0  0  0
 22 21  1  0  0  0  0
 24 25  2  0  0  0  0
 26 25  1  0  0  0  0
 27 26  2  0  0  0  0
 28 27  1  0  0  0  0
 28 24  1  0  0  0  0
 29 27  1  0  0  0  0
 30 28  1  0  0  0  0
 31 30  1  0  0  0  0
 32 30  1  0  0  0  0
 33 30  1  0  0  0  0
 34  2  1  0  0  0  0
 34 39  1  0  0  0  0
 35 34  2  0  0  0  0
 36 35  1  0  0  0  0
 36 37  2  0  0  0  0
 37 38  1  0  0  0  0
 38 39  2  0  0  0  0
 38 43  1  0  0  0  0
 39 42  1  0  0  0  0
 40 36  1  0  0  0  0
 41 37  1  0  0  0  0
 43 45  1  0  0  0  0
 43 44  2  0  0  0  0
 45 46  1  0  0  0  0
 46 55  1  0  0  0  0
 47 46  1  0  0  0  0
 47 57  1  0  0  0  0
 48 50  1  6  0  0  0
 48 47  1  0  0  0  0
 48 52  1  0  0  0  0
 49 59  1  0  0  0  0
 49 48  1  0  0  0  0
 49 45  1  0  0  0  0
 50 61  1  0  0  0  0
 50 51  1  0  0  0  0
 51 52  1  0  0  0  0
 52 62  1  1  0  0  0
 52 53  1  0  0  0  0
 54 46  1  0  0  0  0
 56 47  1  0  0  0  0
 58 49  1  0  0  0  0
 60 50  1  0  0  0  0
M  END
>  <MODEL>
6

>  <REMARK>
 VINA RESULT:    -8.365      2.803      3.990
 INTER + INTRA:         -11.430
 INTER:                 -10.725
 INTRA:                  -0.704
 UNBOUND:                 0.359
  Name = 
  8 active torsions:
  status: ('A' for Active; 'I' for Inactive)
    1  A    between atoms: C_1  and  C_2
    2  A    between atoms: C_2  and  C_3
    3  A    between atoms: C_2  and  C_10
    4  A    between atoms: C_3  and  C_4
    5  A    between atoms: N_8  and  C_9
    6  A    between atoms: C_12  and  N_16
    7  A    between atoms: C_17  and  C_19
    8  A    between atoms: C_23  and  C_25
                            x       y       z     vdW  Elec       q    Type
                         _______ _______ _______ _____ _____    ______ ____

>  <TORSDO>
F 8

$$$$
=
 OpenBabel07192307433D

 62 66  0  0  1  0  0  0  0  0999 V2000
    2.5570    8.5940   17.9170 N   0  0  0  0  0  0  0  0  0  0  0  0
    1.7620    8.9790   18.9800 C   0  0  0  0  0  0  0  0  0  0  0  0
    1.5430    8.3580   20.0130 O   0  0  0  0  0  0  0  0  0  0  0  0
    2.5950    9.2760   17.1610 H   0  0  0  0  0  0  0  0  0  0  0  0
    3.1800    4.9610   17.5480 C   0  0  0  0  0  0  0  0  0  0  0  0
    2.5450    6.2080   17.6920 C   0  0  0  0  0  0  0  0  0  0  0  0
    3.2810    7.4000   17.7560 C   0  0  0  0  0  0  0  0  0  0  0  0
    4.6710    7.3430   17.6620 C   0  0  0  0  0  0  0  0  0  0  0  0
    5.3170    6.1140   17.5130 C   0  0  0  0  0  0  0  0  0  0  0  0
    4.5790    4.9320   17.4560 C   0  0  0  0  0  0  0  0  0  0  0  0
    1.4600    6.2500   17.7530 H   0  0  0  0  0  0  0  0  0  0  0  0
    5.2840    8.2390   17.7090 H   0  0  0  0  0  0  0  0  0  0  0  0
    6.4020    6.0820   17.4430 H   0  0  0  0  0  0  0  0  0  0  0  0
    5.1050    3.9880   17.3360 H   0  0  0  0  0  0  0  0  0  0  0  0
    2.3980    3.6570   17.4450 C   0  0  1  0  0  0  0  0  0  0  0  0
    2.0070    3.5840   16.4200 H   0  0  0  0  0  0  0  0  0  0  0  0
    3.3010    2.4320   17.6570 C   0  0  0  0  0  0  0  0  0  0  0  0
    4.2900    2.5950   17.2090 H   0  0  0  0  0  0  0  0  0  0  0  0
    3.4480    2.2080   18.7190 H   0  0  0  0  0  0  0  0  0  0  0  0
    2.8750    1.5380   17.1930 H   0  0  0  0  0  0  0  0  0  0  0  0
    1.2110    3.6910   18.4320 C   0  0  0  0  0  0  0  0  0  0  0  0
    0.7740    4.6980   18.4570 H   0  0  0  0  0  0  0  0  0  0  0  0
    0.4220    3.0140   18.0760 H   0  0  0  0  0  0  0  0  0  0  0  0
    1.5670    3.2720   19.8210 C   0  0  0  0  0  0  0  0  0  0  0  0
    1.7250    2.0460   20.2780 N   0  0  0  0  0  0  0  0  0  0  0  0
    2.0420    2.1200   21.6140 N   0  0  0  0  0  0  0  0  0  0  0  0
    2.0580    3.3880   21.9480 C   0  0  0  0  0  0  0  0  0  0  0  0
    1.7640    4.1460   20.8590 N   0  0  0  0  0  0  0  0  0  0  0  0
    2.2710    3.7860   22.9310 H   0  0  0  0  0  0  0  0  0  0  0  0
    1.6720    5.5810   20.8230 C   0  0  0  0  0  0  0  0  0  0  0  0
    1.1830    5.8740   19.8900 H   0  0  0  0  0  0  0  0  0  0  0  0
    1.0910    5.9190   21.6850 H   0  0  0  0  0  0  0  0  0  0  0  0
    2.6760    6.0140   20.8640 H   0  0  0  0  0  0  0  0  0  0  0  0
    1.1210   10.3190   18.7720 C   0  0  0  0  0  0  0  0  0  0  0  0
    1.9710   11.3680   18.5720 N   0  0  0  0  0  0  0  0  0  0  0  0
    1.4060   12.5810   18.3800 C   0  0  0  0  0  0  0  0  0  0  0  0
    0.0410   12.7930   18.3620 C   0  0  0  0  0  0  0  0  0  0  0  0
   -0.7950   11.6930   18.5460 C   0  0  0  0  0  0  0  0  0  0  0  0
   -0.2590   10.4320   18.7820 C   0  0  0  0  0  0  0  0  0  0  0  0
    2.1010   13.4040   18.2380 H   0  0  0  0  0  0  0  0  0  0  0  0
   -0.3670   13.7900   18.2180 H   0  0  0  0  0  0  0  0  0  0  0  0
   -0.8890    9.5730   18.9850 H   0  0  0  0  0  0  0  0  0  0  0  0
   -2.2530   11.9150   18.5740 C   0  0  0  0  0  0  0  0  0  0  0  0
   -2.8710   11.7490   17.5250 O   0  0  0  0  0  0  0  0  0  0  0  0
   -2.8580   12.2610   19.7700 N   0  0  0  0  0  0  0  0  0  0  0  0
   -4.3010   12.4570   19.8120 C   0  0  0  0  0  0  0  0  0  0  0  0
   -4.6720   12.2590   21.2710 C   0  0  0  0  0  0  0  0  0  0  0  0
   -3.4110   12.7260   21.9760 C   0  0  2  0  0  0  0  0  0  0  0  0
   -2.2560   12.2460   21.1020 C   0  0  0  0  0  0  0  0  0  0  0  0
   -3.2680   12.4530   23.4780 C   0  0  0  0  0  0  0  0  0  0  0  0
   -2.7500   13.7890   23.7000 O   0  0  0  0  0  0  0  0  0  0  0  0
   -3.2590   14.2120   22.4020 C   0  0  2  0  0  0  0  0  0  0  0  0
   -4.6940   15.2670   22.5840 Cl  0  0  0  0  0  0  0  0  0  0  0  0
   -4.8260   11.7630   19.1480 H   0  0  0  0  0  0  0  0  0  0  0  0
   -4.5010   13.4830   19.4850 H   0  0  0  0  0  0  0  0  0  0  0  0
   -4.8330   11.1900   21.4660 H   0  0  0  0  0  0  0  0  0  0  0  0
   -5.5850   12.7880   21.5500 H   0  0  0  0  0  0  0  0  0  0  0  0
   -1.9770   11.2100   21.3260 H   0  0  0  0  0  0  0  0  0  0  0  0
   -1.3690   12.8790   21.1550 H   0  0  0  0  0  0  0  0  0  0  0  0
   -2.5430   11.6820   23.7600 H   0  0  0  0  0  0  0  0  0  0  0  0
   -4.2000   12.2980   24.0320 H   0  0  0  0  0  0  0  0  0  0  0  0
   -2.5010   14.7800   21.8530 H   0  0  0  0  0  0  0  0  0  0  0  0
  1  2  1  0  0  0  0
  2  3  2  0  0  0  0
  4  1  1  0  0  0  0
  5  6  1  0  0  0  0
  6 11  1  0  0  0  0
  6  7  2  0  0  0  0
  7  1  1  0  0  0  0
  8 12  1  0  0  0  0
  8  7  1  0  0  0  0
  9  8  2  0  0  0  0
 10  9  1  0  0  0  0
 10  5  2  0  0  0  0
 13  9  1  0  0  0  0
 14 10  1  0  0  0  0
 15 16  1  6  0  0  0
 15  5  1  0  0  0  0
 15 17  1  0  0  0  0
 15 21  1  0  0  0  0
 17 19  1  0  0  0  0
 18 17  1  0  0  0  0
 20 17  1  0  0  0  0
 21 22  1  0  0  0  0
 21 24  1  0  0  0  0
 23 21  1  0  0  0  0
 24 25  2  0  0  0  0
 24 28  1  0  0  0  0
 25 26  1  0  0  0  0
 26 27  2  0  0  0  0
 27 29  1  0  0  0  0
 28 27  1  0  0  0  0
 30 28  1  0  0  0  0
 30 33  1  0  0  0  0
 30 32  1  0  0  0  0
 31 30  1  0  0  0  0
 34 39  1  0  0  0  0
 34  2  1  0  0  0  0
 35 34  2  0  0  0  0
 36 35  1  0  0  0  0
 37 36  2  0  0  0  0
 37 38  1  0  0  0  0
 38 43  1  0  0  0  0
 38 39  2  0  0  0  0
 39 42  1  0  0  0  0
 40 36  1  0  0  0  0
 41 37  1  0  0  0  0
 43 45  1  0  0  0  0
 44 43  2  0  0  0  0
 45 46  1  0  0  0  0
 45 49  1  0  0  0  0
 46 47  1  0  0  0  0
 47 56  1  0  0  0  0
 47 57  1  0  0  0  0
 47 48  1  0  0  0  0
 48 49  1  6  0  0  0
 48 52  1  0  0  0  0
 48 50  1  0  0  0  0
 49 59  1  0  0  0  0
 49 58  1  0  0  0  0
 50 51  1  0  0  0  0
 50 60  1  0  0  0  0
 50 61  1  0  0  0  0
 52 62  1  6  0  0  0
 52 53  1  0  0  0  0
 52 51  1  0  0  0  0
 54 46  1  0  0  0  0
 55 46  1  0  0  0  0
M  END
>  <MODEL>
7

>  <REMARK>
 VINA RESULT:    -8.325      3.373      5.197
 INTER + INTRA:         -11.373
 INTER:                 -11.095
 INTRA:                  -0.278
 UNBOUND:                 0.359
  Name = 
  8 active torsions:
  status: ('A' for Active; 'I' for Inactive)
    1  A    between atoms: C_1  and  C_2
    2  A    between atoms: C_2  and  C_3
    3  A    between atoms: C_2  and  C_10
    4  A    between atoms: C_3  and  C_4
    5  A    between atoms: N_8  and  C_9
    6  A    between atoms: C_12  and  N_16
    7  A    between atoms: C_17  and  C_19
    8  A    between atoms: C_23  and  C_25
                            x       y       z     vdW  Elec       q    Type
                         _______ _______ _______ _____ _____    ______ ____

>  <TORSDO>
F 8

$$$$
=
 OpenBabel07192307433D

 62 66  0  0  1  0  0  0  0  0999 V2000
    2.2900    6.5170   18.8290 N   0  0  0  0  0  0  0  0  0  0  0  0
    1.9820    6.6270   20.1720 C   0  0  0  0  0  0  0  0  0  0  0  0
    2.0560    5.7550   21.0290 O   0  0  0  0  0  0  0  0  0  0  0  0
    2.1540    7.3780   18.3020 H   0  0  0  0  0  0  0  0  0  0  0  0
    4.4500    4.4450   16.6470 C   0  0  0  0  0  0  0  0  0  0  0  0
    3.9300    5.5160   17.3960 C   0  0  0  0  0  0  0  0  0  0  0  0
    2.7390    5.3860   18.1260 C   0  0  0  0  0  0  0  0  0  0  0  0
    2.0670    4.1640   18.1140 C   0  0  0  0  0  0  0  0  0  0  0  0
    2.5740    3.0890   17.3800 C   0  0  0  0  0  0  0  0  0  0  0  0
    3.7560    3.2270   16.6530 C   0  0  0  0  0  0  0  0  0  0  0  0
    4.4620    6.4640   17.4130 H   0  0  0  0  0  0  0  0  0  0  0  0
    1.1410    4.0160   18.6620 H   0  0  0  0  0  0  0  0  0  0  0  0
    2.0400    2.1410   17.3760 H   0  0  0  0  0  0  0  0  0  0  0  0
    4.1310    2.3740   16.0910 H   0  0  0  0  0  0  0  0  0  0  0  0
    5.7590    4.5550   15.8730 C   0  0  1  0  0  0  0  0  0  0  0  0
    6.4170    3.7420   16.2140 H   0  0  0  0  0  0  0  0  0  0  0  0
    5.5490    4.3440   14.3650 C   0  0  0  0  0  0  0  0  0  0  0  0
    5.2750    5.2860   13.8740 H   0  0  0  0  0  0  0  0  0  0  0  0
    6.4490    3.9590   13.8740 H   0  0  0  0  0  0  0  0  0  0  0  0
    4.7430    3.6290   14.1730 H   0  0  0  0  0  0  0  0  0  0  0  0
    6.4300    5.9090   16.1890 C   0  0  0  0  0  0  0  0  0  0  0  0
    7.0860    6.2040   15.3590 H   0  0  0  0  0  0  0  0  0  0  0  0
    5.6590    6.6870   16.2710 H   0  0  0  0  0  0  0  0  0  0  0  0
    7.2120    5.9150   17.4610 C   0  0  0  0  0  0  0  0  0  0  0  0
    7.5170    4.8860   18.2250 N   0  0  0  0  0  0  0  0  0  0  0  0
    8.2410    5.3440   19.3010 N   0  0  0  0  0  0  0  0  0  0  0  0
    8.3520    6.6450   19.1780 C   0  0  0  0  0  0  0  0  0  0  0  0
    7.7210    7.0470   18.0440 N   0  0  0  0  0  0  0  0  0  0  0  0
    8.8620    7.3080   19.8640 H   0  0  0  0  0  0  0  0  0  0  0  0
    7.6100    8.4010   17.5680 C   0  0  0  0  0  0  0  0  0  0  0  0
    7.8770    8.4180   16.5080 H   0  0  0  0  0  0  0  0  0  0  0  0
    6.5810    8.7410   17.7130 H   0  0  0  0  0  0  0  0  0  0  0  0
    8.2920    9.0440   18.1320 H   0  0  0  0  0  0  0  0  0  0  0  0
    1.5010    7.9960   20.5490 C   0  0  0  0  0  0  0  0  0  0  0  0
    1.3880    8.2460   21.8870 N   0  0  0  0  0  0  0  0  0  0  0  0
    0.9580    9.4780   22.2410 C   0  0  0  0  0  0  0  0  0  0  0  0
    0.6530   10.4720   21.3300 C   0  0  0  0  0  0  0  0  0  0  0  0
    0.8050   10.1850   19.9740 C   0  0  0  0  0  0  0  0  0  0  0  0
    1.2100    8.9220   19.5620 C   0  0  0  0  0  0  0  0  0  0  0  0
    0.8610    9.6510   23.3090 H   0  0  0  0  0  0  0  0  0  0  0  0
    0.2980   11.4430   21.6620 H   0  0  0  0  0  0  0  0  0  0  0  0
    1.2790    8.6590   18.5120 H   0  0  0  0  0  0  0  0  0  0  0  0
    0.4390   11.2240   18.9920 C   0  0  0  0  0  0  0  0  0  0  0  0
    1.2930   12.0600   18.7080 O   0  0  0  0  0  0  0  0  0  0  0  0
   -0.8190   11.1910   18.4160 N   0  0  0  0  0  0  0  0  0  0  0  0
   -1.1790   12.1970   17.4260 C   0  0  0  0  0  0  0  0  0  0  0  0
   -2.3110   11.5660   16.6330 C   0  0  0  0  0  0  0  0  0  0  0  0
   -2.9580   10.6740   17.6770 C   0  0  2  0  0  0  0  0  0  0  0  0
   -1.8050   10.1140   18.5040 C   0  0  0  0  0  0  0  0  0  0  0  0
   -4.0060    9.6510   17.2190 C   0  0  0  0  0  0  0  0  0  0  0  0
   -4.8590    9.9800   18.3450 O   0  0  0  0  0  0  0  0  0  0  0  0
   -4.1170   11.2150   18.5580 C   0  0  2  0  0  0  0  0  0  0  0  0
   -5.0720   12.6400   18.0460 Cl  0  0  0  0  0  0  0  0  0  0  0  0
   -0.3280   12.4710   16.7950 H   0  0  0  0  0  0  0  0  0  0  0  0
   -1.5200   13.0840   17.9710 H   0  0  0  0  0  0  0  0  0  0  0  0
   -1.8930   10.9520   15.8250 H   0  0  0  0  0  0  0  0  0  0  0  0
   -2.9720   12.3060   16.1790 H   0  0  0  0  0  0  0  0  0  0  0  0
   -1.3630    9.2240   18.0420 H   0  0  0  0  0  0  0  0  0  0  0  0
   -2.0700    9.8900   19.5380 H   0  0  0  0  0  0  0  0  0  0  0  0
   -3.6930    8.6020   17.2350 H   0  0  0  0  0  0  0  0  0  0  0  0
   -4.5090    9.8670   16.2710 H   0  0  0  0  0  0  0  0  0  0  0  0
   -3.8750   11.3450   19.6190 H   0  0  0  0  0  0  0  0  0  0  0  0
  1  2  1  0  0  0  0
  2 34  1  0  0  0  0
  2  3  2  0  0  0  0
  4  1  1  0  0  0  0
  5 10  2  0  0  0  0
  5  6  1  0  0  0  0
  6 11  1  0  0  0  0
  6  7  2  0  0  0  0
  7  1  1  0  0  0  0
  8  7  1  0  0  0  0
  8 12  1  0  0  0  0
  9  8  2  0  0  0  0
 10  9  1  0  0  0  0
 13  9  1  0  0  0  0
 14 10  1  0  0  0  0
 15 21  1  0  0  0  0
 15 16  1  1  0  0  0
 15  5  1  0  0  0  0
 17 15  1  0  0  0  0
 18 17  1  0  0  0  0
 19 17  1  0  0  0  0
 20 17  1  0  0  0  0
 21 23  1  0  0  0  0
 21 24  1  0  0  0  0
 22 21  1  0  0  0  0
 24 28  1  0  0  0  0
 24 25  2  0  0  0  0
 25 26  1  0  0  0  0
 27 26  2  0  0  0  0
 27 29  1  0  0  0  0
 28 27  1  0  0  0  0
 30 32  1  0  0  0  0
 30 28  1  0  0  0  0
 30 33  1  0  0  0  0
 31 30  1  0  0  0  0
 34 35  1  0  0  0  0
 35 36  2  0  0  0  0
 36 40  1  0  0  0  0
 37 41  1  0  0  0  0
 37 36  1  0  0  0  0
 38 37  2  0  0  0  0
 39 38  1  0  0  0  0
 39 34  2  0  0  0  0
 42 39  1  0  0  0  0
 43 38  1  0  0  0  0
 44 43  2  0  0  0  0
 45 49  1  0  0  0  0
 45 43  1  0  0  0  0
 46 55  1  0  0  0  0
 46 45  1  0  0  0  0
 47 46  1  0  0  0  0
 48 47  1  6  0  0  0
 48 49  1  0  0  0  0
 48 52  1  0  0  0  0
 49 59  1  0  0  0  0
 50 60  1  0  0  0  0
 50 48  1  0  0  0  0
 50 51  1  0  0  0  0
 51 52  1  0  0  0  0
 52 62  1  1  0  0  0
 53 52  1  0  0  0  0
 54 46  1  0  0  0  0
 56 47  1  0  0  0  0
 57 47  1  0  0  0  0
 58 49  1  0  0  0  0
 61 50  1  0  0  0  0
M  END
>  <MODEL>
8

>  <REMARK>
 VINA RESULT:    -8.291      2.918      4.420
 INTER + INTRA:         -11.325
 INTER:                 -10.465
 INTRA:                  -0.859
 UNBOUND:                 0.359
  Name = 
  8 active torsions:
  status: ('A' for Active; 'I' for Inactive)
    1  A    between atoms: C_1  and  C_2
    2  A    between atoms: C_2  and  C_3
    3  A    between atoms: C_2  and  C_10
    4  A    between atoms: C_3  and  C_4
    5  A    between atoms: N_8  and  C_9
    6  A    between atoms: C_12  and  N_16
    7  A    between atoms: C_17  and  C_19
    8  A    between atoms: C_23  and  C_25
                            x       y       z     vdW  Elec       q    Type
                         _______ _______ _______ _____ _____    ______ ____

>  <TORSDO>
F 8

$$$$
=
 OpenBabel07192307433D

 62 66  0  0  1  0  0  0  0  0999 V2000
    2.1670    6.5160   18.9740 N   0  0  0  0  0  0  0  0  0  0  0  0
    2.0100    7.8190   18.5410 C   0  0  0  0  0  0  0  0  0  0  0  0
    2.2060    8.2620   17.4160 O   0  0  0  0  0  0  0  0  0  0  0  0
    1.9420    6.3770   19.9570 H   0  0  0  0  0  0  0  0  0  0  0  0
    4.3300    4.4670   16.7720 C   0  0  0  0  0  0  0  0  0  0  0  0
    3.8180    5.5240   17.5470 C   0  0  0  0  0  0  0  0  0  0  0  0
    2.6050    5.3990   18.2400 C   0  0  0  0  0  0  0  0  0  0  0  0
    1.9030    4.1970   18.1670 C   0  0  0  0  0  0  0  0  0  0  0  0
    2.4010    3.1360   17.4070 C   0  0  0  0  0  0  0  0  0  0  0  0
    3.6050    3.2690   16.7150 C   0  0  0  0  0  0  0  0  0  0  0  0
    4.3730    6.4560   17.6120 H   0  0  0  0  0  0  0  0  0  0  0  0
    0.9590    4.0540   18.6850 H   0  0  0  0  0  0  0  0  0  0  0  0
    1.8440    2.2030   17.3550 H   0  0  0  0  0  0  0  0  0  0  0  0
    3.9730    2.4270   16.1330 H   0  0  0  0  0  0  0  0  0  0  0  0
    5.6610    4.5700   16.0360 C   0  0  1  0  0  0  0  0  0  0  0  0
    6.3190    3.7790   16.4250 H   0  0  0  0  0  0  0  0  0  0  0  0
    5.5010    4.3070   14.5310 C   0  0  0  0  0  0  0  0  0  0  0  0
    5.1770    3.2750   14.3470 H   0  0  0  0  0  0  0  0  0  0  0  0
    4.7650    4.9750   14.0720 H   0  0  0  0  0  0  0  0  0  0  0  0
    6.4460    4.4520   13.9990 H   0  0  0  0  0  0  0  0  0  0  0  0
    6.3040    5.9430   16.3280 C   0  0  0  0  0  0  0  0  0  0  0  0
    6.9180    6.2580   15.4740 H   0  0  0  0  0  0  0  0  0  0  0  0
    5.5140    6.6980   16.4420 H   0  0  0  0  0  0  0  0  0  0  0  0
    7.1340    5.9720   17.5700 C   0  0  0  0  0  0  0  0  0  0  0  0
    7.4140    4.9670   18.3750 N   0  0  0  0  0  0  0  0  0  0  0  0
    8.2020    5.4400   19.3980 N   0  0  0  0  0  0  0  0  0  0  0  0
    8.3770    6.7250   19.2030 C   0  0  0  0  0  0  0  0  0  0  0  0
    7.7240    7.1030   18.0730 N   0  0  0  0  0  0  0  0  0  0  0  0
    8.9460    7.3940   19.8340 H   0  0  0  0  0  0  0  0  0  0  0  0
    7.6650    8.4340   17.5310 C   0  0  0  0  0  0  0  0  0  0  0  0
    7.8470    9.1470   18.3400 H   0  0  0  0  0  0  0  0  0  0  0  0
    8.4270    8.5310   16.7530 H   0  0  0  0  0  0  0  0  0  0  0  0
    6.6760    8.6110   17.0990 H   0  0  0  0  0  0  0  0  0  0  0  0
    1.5530    8.7430   19.6310 C   0  0  0  0  0  0  0  0  0  0  0  0
    1.4810    8.2060   20.8840 N   0  0  0  0  0  0  0  0  0  0  0  0
    1.0740    9.0290   21.8760 C   0  0  0  0  0  0  0  0  0  0  0  0
    0.7510   10.3580   21.6820 C   0  0  0  0  0  0  0  0  0  0  0  0
    0.8600   10.8760   20.3920 C   0  0  0  0  0  0  0  0  0  0  0  0
    1.2410   10.0590   19.3340 C   0  0  0  0  0  0  0  0  0  0  0  0
    1.0090    8.5770   22.8620 H   0  0  0  0  0  0  0  0  0  0  0  0
    0.4140   10.9770   22.5080 H   0  0  0  0  0  0  0  0  0  0  0  0
    1.2780   10.4250   18.3140 H   0  0  0  0  0  0  0  0  0  0  0  0
    0.4760   12.2820   20.1650 C   0  0  0  0  0  0  0  0  0  0  0  0
    1.1840   12.9490   19.4140 O   0  0  0  0  0  0  0  0  0  0  0  0
   -0.6680   12.7730   20.7710 N   0  0  0  0  0  0  0  0  0  0  0  0
   -1.0690   14.1520   20.5310 C   0  0  0  0  0  0  0  0  0  0  0  0
   -2.5550   14.1790   20.8420 C   0  0  0  0  0  0  0  0  0  0  0  0
   -2.6670   13.1000   21.9040 C   0  0  2  0  0  0  0  0  0  0  0  0
   -1.6940   12.0060   21.4750 C   0  0  0  0  0  0  0  0  0  0  0  0
   -4.0640   12.6230   22.3200 C   0  0  0  0  0  0  0  0  0  0  0  0
   -3.6820   12.6310   23.7180 O   0  0  0  0  0  0  0  0  0  0  0  0
   -2.5290   13.4660   23.4070 C   0  0  2  0  0  0  0  0  0  0  0  0
   -2.7770   15.1470   23.9700 Cl  0  0  0  0  0  0  0  0  0  0  0  0
   -0.8490   14.4690   19.5060 H   0  0  0  0  0  0  0  0  0  0  0  0
   -0.5050   14.7820   21.2270 H   0  0  0  0  0  0  0  0  0  0  0  0
   -3.1210   13.8820   19.9480 H   0  0  0  0  0  0  0  0  0  0  0  0
   -2.9070   15.1670   21.1430 H   0  0  0  0  0  0  0  0  0  0  0  0
   -2.1450   11.3160   20.7530 H   0  0  0  0  0  0  0  0  0  0  0  0
   -1.2760   11.4360   22.3060 H   0  0  0  0  0  0  0  0  0  0  0  0
   -4.3510   11.6220   21.9800 H   0  0  0  0  0  0  0  0  0  0  0  0
   -4.8880   13.3210   22.1350 H   0  0  0  0  0  0  0  0  0  0  0  0
   -1.6280   13.0840   23.9000 H   0  0  0  0  0  0  0  0  0  0  0  0
  1  4  1  0  0  0  0
  2  1  1  0  0  0  0
  2 34  1  0  0  0  0
  3  2  2  0  0  0  0
  5  6  1  0  0  0  0
  6 11  1  0  0  0  0
  6  7  2  0  0  0  0
  7  1  1  0  0  0  0
  8  7  1  0  0  0  0
  8 12  1  0  0  0  0
  9  8  2  0  0  0  0
 10  5  2  0  0  0  0
 10  9  1  0  0  0  0
 13  9  1  0  0  0  0
 14 10  1  0  0  0  0
 15 21  1  0  0  0  0
 15 16  1  1  0  0  0
 15  5  1  0  0  0  0
 17 15  1  0  0  0  0
 18 17  1  0  0  0  0
 19 17  1  0  0  0  0
 20 17  1  0  0  0  0
 21 23  1  0  0  0  0
 21 24  1  0  0  0  0
 22 21  1  0  0  0  0
 24 28  1  0  0  0  0
 24 25  2  0  0  0  0
 25 26  1  0  0  0  0
 27 26  2  0  0  0  0
 27 29  1  0  0  0  0
 28 27  1  0  0  0  0
 30 28  1  0  0  0  0
 30 31  1  0  0  0  0
 32 30  1  0  0  0  0
 33 30  1  0  0  0  0
 34 35  1  0  0  0  0
 35 36  2  0  0  0  0
 36 40  1  0  0  0  0
 37 36  1  0  0  0  0
 37 41  1  0  0  0  0
 38 37  2  0  0  0  0
 39 34  2  0  0  0  0
 39 38  1  0  0  0  0
 42 39  1  0  0  0  0
 43 38  1  0  0  0  0
 43 45  1  0  0  0  0
 44 43  2  0  0  0  0
 45 49  1  0  0  0  0
 46 45  1  0  0  0  0
 46 47  1  0  0  0  0
 46 55  1  0  0  0  0
 47 57  1  0  0  0  0
 48 47  1  6  0  0  0
 48 50  1  0  0  0  0
 48 52  1  0  0  0  0
 49 48  1  0  0  0  0
 49 59  1  0  0  0  0
 50 51  1  0  0  0  0
 52 51  1  0  0  0  0
 52 62  1  1  0  0  0
 52 53  1  0  0  0  0
 54 46  1  0  0  0  0
 56 47  1  0  0  0  0
 58 49  1  0  0  0  0
 60 50  1  0  0  0  0
 61 50  1  0  0  0  0
M  END
>  <MODEL>
9

>  <REMARK>
 VINA RESULT:    -8.254      2.783      4.081
 INTER + INTRA:         -11.273
 INTER:                 -11.037
 INTRA:                  -0.236
 UNBOUND:                 0.359
  Name = 
  8 active torsions:
  status: ('A' for Active; 'I' for Inactive)
    1  A    between atoms: C_1  and  C_2
    2  A    between atoms: C_2  and  C_3
    3  A    between atoms: C_2  and  C_10
    4  A    between atoms: C_3  and  C_4
    5  A    between atoms: N_8  and  C_9
    6  A    between atoms: C_12  and  N_16
    7  A    between atoms: C_17  and  C_19
    8  A    between atoms: C_23  and  C_25
                            x       y       z     vdW  Elec       q    Type
                         _______ _______ _______ _____ _____    ______ ____

>  <TORSDO>
F 8

$$$$
=
 OpenBabel07192307433D

 62 66  0  0  1  0  0  0  0  0999 V2000
    1.8280    9.3190   19.6060 N   0  0  0  0  0  0  0  0  0  0  0  0
    0.9150   10.0900   18.9120 C   0  0  0  0  0  0  0  0  0  0  0  0
    0.0330    9.7030   18.1550 O   0  0  0  0  0  0  0  0  0  0  0  0
    2.4720    9.8590   20.1820 H   0  0  0  0  0  0  0  0  0  0  0  0
    2.8920    5.9730   18.4260 C   0  0  0  0  0  0  0  0  0  0  0  0
    2.7020    7.3630   18.5330 C   0  0  0  0  0  0  0  0  0  0  0  0
    1.9780    7.9210   19.5960 C   0  0  0  0  0  0  0  0  0  0  0  0
    1.4480    7.0770   20.5720 C   0  0  0  0  0  0  0  0  0  0  0  0
    1.6330    5.6950   20.4840 C   0  0  0  0  0  0  0  0  0  0  0  0
    2.3500    5.1470   19.4200 C   0  0  0  0  0  0  0  0  0  0  0  0
    3.1260    8.0190   17.7770 H   0  0  0  0  0  0  0  0  0  0  0  0
    0.8790    7.4630   21.4130 H   0  0  0  0  0  0  0  0  0  0  0  0
    1.2140    5.0470   21.2500 H   0  0  0  0  0  0  0  0  0  0  0  0
    2.4820    4.0680   19.3760 H   0  0  0  0  0  0  0  0  0  0  0  0
    3.7020    5.3470   17.2950 C   0  0  1  0  0  0  0  0  0  0  0  0
    2.9920    4.8880   16.5920 H   0  0  0  0  0  0  0  0  0  0  0  0
    4.4820    6.4060   16.5010 C   0  0  0  0  0  0  0  0  0  0  0  0
    3.8850    7.3180   16.3740 H   0  0  0  0  0  0  0  0  0  0  0  0
    5.4180    6.6860   16.9980 H   0  0  0  0  0  0  0  0  0  0  0  0
    4.7410    6.0440   15.5020 H   0  0  0  0  0  0  0  0  0  0  0  0
    4.6200    4.2470   17.8690 C   0  0  0  0  0  0  0  0  0  0  0  0
    4.0960    3.7000   18.6640 H   0  0  0  0  0  0  0  0  0  0  0  0
    4.8480    3.5160   17.0820 H   0  0  0  0  0  0  0  0  0  0  0  0
    5.9210    4.7580   18.3960 C   0  0  0  0  0  0  0  0  0  0  0  0
    6.1620    5.2760   19.5840 N   0  0  0  0  0  0  0  0  0  0  0  0
    7.4920    5.6200   19.6440 N   0  0  0  0  0  0  0  0  0  0  0  0
    8.0320    5.3180   18.4880 C   0  0  0  0  0  0  0  0  0  0  0  0
    7.0870    4.7790   17.6750 N   0  0  0  0  0  0  0  0  0  0  0  0
    9.0660    5.4680   18.2090 H   0  0  0  0  0  0  0  0  0  0  0  0
    7.2850    4.3320   16.3220 C   0  0  0  0  0  0  0  0  0  0  0  0
    6.4040    4.6050   15.7340 H   0  0  0  0  0  0  0  0  0  0  0  0
    8.1810    4.8130   15.9200 H   0  0  0  0  0  0  0  0  0  0  0  0
    7.4140    3.2460   16.3100 H   0  0  0  0  0  0  0  0  0  0  0  0
    1.0890   11.5590   19.1560 C   0  0  0  0  0  0  0  0  0  0  0  0
    1.6800   12.2700   18.1510 N   0  0  0  0  0  0  0  0  0  0  0  0
    1.8400   13.5960   18.3560 C   0  0  0  0  0  0  0  0  0  0  0  0
    1.4260   14.2470   19.5030 C   0  0  0  0  0  0  0  0  0  0  0  0
    0.8050   13.4910   20.4960 C   0  0  0  0  0  0  0  0  0  0  0  0
    0.6510   12.1180   20.3440 C   0  0  0  0  0  0  0  0  0  0  0  0
    2.3260   14.1390   17.5500 H   0  0  0  0  0  0  0  0  0  0  0  0
    1.5890   15.3130   19.6290 H   0  0  0  0  0  0  0  0  0  0  0  0
    0.2220   11.5020   21.1270 H   0  0  0  0  0  0  0  0  0  0  0  0
    0.4000   14.1670   21.7430 C   0  0  0  0  0  0  0  0  0  0  0  0
    1.2690   14.7680   22.3700 O   0  0  0  0  0  0  0  0  0  0  0  0
   -0.9290   14.1250   22.1290 N   0  0  0  0  0  0  0  0  0  0  0  0
   -1.3430   14.8120   23.3450 C   0  0  0  0  0  0  0  0  0  0  0  0
   -2.8320   15.0440   23.1670 C   0  0  0  0  0  0  0  0  0  0  0  0
   -3.2280   13.8580   22.3060 C   0  0  2  0  0  0  0  0  0  0  0  0
   -2.0650   13.6520   21.3400 C   0  0  0  0  0  0  0  0  0  0  0  0
   -4.6270   13.8430   21.6760 C   0  0  0  0  0  0  0  0  0  0  0  0
   -4.7960   12.4430   22.0170 O   0  0  0  0  0  0  0  0  0  0  0  0
   -3.6960   12.5330   22.9680 C   0  0  2  0  0  0  0  0  0  0  0  0
   -4.2960   12.5100   24.6540 Cl  0  0  0  0  0  0  0  0  0  0  0  0
   -0.7880   15.7440   23.4960 H   0  0  0  0  0  0  0  0  0  0  0  0
   -1.1420   14.1380   24.1850 H   0  0  0  0  0  0  0  0  0  0  0  0
   -2.9930   15.9770   22.6110 H   0  0  0  0  0  0  0  0  0  0  0  0
   -3.3640   15.1280   24.1160 H   0  0  0  0  0  0  0  0  0  0  0  0
   -2.1460   14.2960   20.4580 H   0  0  0  0  0  0  0  0  0  0  0  0
   -1.9340   12.6170   21.0200 H   0  0  0  0  0  0  0  0  0  0  0  0
   -4.6680   14.0080   20.5950 H   0  0  0  0  0  0  0  0  0  0  0  0
   -5.3850   14.4600   22.1700 H   0  0  0  0  0  0  0  0  0  0  0  0
   -3.0110   11.6860   22.8520 H   0  0  0  0  0  0  0  0  0  0  0  0
  1  4  1  0  0  0  0
  2 34  1  0  0  0  0
  2  1  1  0  0  0  0
  3  2  2  0  0  0  0
  5  6  2  0  0  0  0
  5 10  1  0  0  0  0
  6  7  1  0  0  0  0
  7  1  1  0  0  0  0
  7  8  2  0  0  0  0
  8 12  1  0  0  0  0
  9  8  1  0  0  0  0
  9 13  1  0  0  0  0
 10  9  2  0  0  0  0
 11  6  1  0  0  0  0
 14 10  1  0  0  0  0
 15 16  1  6  0  0  0
 15 21  1  0  0  0  0
 15  5  1  0  0  0  0
 17 19  1  0  0  0  0
 17 15  1  0  0  0  0
 18 17  1  0  0  0  0
 20 17  1  0  0  0  0
 21 24  1  0  0  0  0
 21 22  1  0  0  0  0
 23 21  1  0  0  0  0
 24 25  2  0  0  0  0
 25 26  1  0  0  0  0
 27 26  2  0  0  0  0
 28 24  1  0  0  0  0
 28 27  1  0  0  0  0
 29 27  1  0  0  0  0
 30 28  1  0  0  0  0
 31 30  1  0  0  0  0
 32 30  1  0  0  0  0
 33 30  1  0  0  0  0
 34 39  1  0  0  0  0
 35 36  1  0  0  0  0
 35 34  2  0  0  0  0
 36 37  2  0  0  0  0
 37 41  1  0  0  0  0
 37 38  1  0  0  0  0
 38 43  1  0  0  0  0
 39 38  2  0  0  0  0
 39 42  1  0  0  0  0
 40 36  1  0  0  0  0
 43 45  1  0  0  0  0
 43 44  2  0  0  0  0
 45 46  1  0  0  0  0
 46 54  1  0  0  0  0
 46 55  1  0  0  0  0
 47 46  1  0  0  0  0
 47 57  1  0  0  0  0
 48 49  1  6  0  0  0
 48 52  1  0  0  0  0
 48 47  1  0  0  0  0
 49 45  1  0  0  0  0
 50 51  1  0  0  0  0
 50 61  1  0  0  0  0
 50 48  1  0  0  0  0
 51 52  1  0  0  0  0
 52 62  1  6  0  0  0
 52 53  1  0  0  0  0
 56 47  1  0  0  0  0
 58 49  1  0  0  0  0
 59 49  1  0  0  0  0
 60 50  1  0  0  0  0
M  END
>  <MODEL>
10

>  <REMARK>
 VINA RESULT:    -8.036      3.194      4.808
 INTER + INTRA:         -10.966
 INTER:                 -10.168
 INTRA:                  -0.798
 UNBOUND:                 0.359
  Name = 
  8 active torsions:
  status: ('A' for Active; 'I' for Inactive)
    1  A    between atoms: C_1  and  C_2
    2  A    between atoms: C_2  and  C_3
    3  A    between atoms: C_2  and  C_10
    4  A    between atoms: C_3  and  C_4
    5  A    between atoms: N_8  and  C_9
    6  A    between atoms: C_12  and  N_16
    7  A    between atoms: C_17  and  C_19
    8  A    between atoms: C_23  and  C_25
                            x       y       z     vdW  Elec       q    Type
                         _______ _______ _______ _____ _____    ______ ____

>  <TORSDO>
F 8

$$$$
=
 OpenBabel07192307433D

 62 66  0  0  1  0  0  0  0  0999 V2000
    1.6110    6.0630   21.1430 N   0  0  0  0  0  0  0  0  0  0  0  0
    1.8880    7.2420   20.4780 C   0  0  0  0  0  0  0  0  0  0  0  0
    2.6280    7.4000   19.5140 O   0  0  0  0  0  0  0  0  0  0  0  0
    0.9600    6.1690   21.9190 H   0  0  0  0  0  0  0  0  0  0  0  0
    3.0610    3.2410   19.2300 C   0  0  0  0  0  0  0  0  0  0  0  0
    2.5510    4.5040   19.5840 C   0  0  0  0  0  0  0  0  0  0  0  0
    2.1200    4.7770   20.8910 C   0  0  0  0  0  0  0  0  0  0  0  0
    2.2140    3.7760   21.8580 C   0  0  0  0  0  0  0  0  0  0  0  0
    2.7230    2.5190   21.5240 C   0  0  0  0  0  0  0  0  0  0  0  0
    3.1450    2.2530   20.2210 C   0  0  0  0  0  0  0  0  0  0  0  0
    2.4910    5.2850   18.8310 H   0  0  0  0  0  0  0  0  0  0  0  0
    1.8910    3.9400   22.8820 H   0  0  0  0  0  0  0  0  0  0  0  0
    2.7890    1.7460   22.2860 H   0  0  0  0  0  0  0  0  0  0  0  0
    3.5400    1.2670   19.9870 H   0  0  0  0  0  0  0  0  0  0  0  0
    3.5640    2.9330   17.8240 C   0  0  1  0  0  0  0  0  0  0  0  0
    4.4870    2.3440   17.9220 H   0  0  0  0  0  0  0  0  0  0  0  0
    2.5690    2.0610   17.0420 C   0  0  0  0  0  0  0  0  0  0  0  0
    2.7950    0.9950   17.1760 H   0  0  0  0  0  0  0  0  0  0  0  0
    1.5360    2.2260   17.3640 H   0  0  0  0  0  0  0  0  0  0  0  0
    2.6120    2.2720   15.9700 H   0  0  0  0  0  0  0  0  0  0  0  0
    3.8880    4.2540   17.0940 C   0  0  0  0  0  0  0  0  0  0  0  0
    3.2510    4.3560   16.2050 H   0  0  0  0  0  0  0  0  0  0  0  0
    3.6480    5.1010   17.7500 H   0  0  0  0  0  0  0  0  0  0  0  0
    5.3200    4.3890   16.6930 C   0  0  0  0  0  0  0  0  0  0  0  0
    5.8580    4.1160   15.5210 N   0  0  0  0  0  0  0  0  0  0  0  0
    7.2060    4.3770   15.5920 N   0  0  0  0  0  0  0  0  0  0  0  0
    7.4660    4.7920   16.8090 C   0  0  0  0  0  0  0  0  0  0  0  0
    6.3170    4.8120   17.5340 N   0  0  0  0  0  0  0  0  0  0  0  0
    8.4360    5.0770   17.1920 H   0  0  0  0  0  0  0  0  0  0  0  0
    6.1900    5.1960   18.9150 C   0  0  0  0  0  0  0  0  0  0  0  0
    7.0380    4.7830   19.4680 H   0  0  0  0  0  0  0  0  0  0  0  0
    6.1830    6.2880   18.9770 H   0  0  0  0  0  0  0  0  0  0  0  0
    5.2550    4.8000   19.3210 H   0  0  0  0  0  0  0  0  0  0  0  0
    1.1730    8.4230   21.0630 C   0  0  0  0  0  0  0  0  0  0  0  0
    0.8570    8.3370   22.3890 N   0  0  0  0  0  0  0  0  0  0  0  0
    0.2140    9.3970   22.9300 C   0  0  0  0  0  0  0  0  0  0  0  0
   -0.1120   10.5370   22.2200 C   0  0  0  0  0  0  0  0  0  0  0  0
    0.2490   10.5950   20.8750 C   0  0  0  0  0  0  0  0  0  0  0  0
    0.8800    9.5160   20.2660 C   0  0  0  0  0  0  0  0  0  0  0  0
   -0.0410    9.3020   23.9820 H   0  0  0  0  0  0  0  0  0  0  0  0
   -0.6420   11.3570   22.6950 H   0  0  0  0  0  0  0  0  0  0  0  0
    1.1180    9.5170   19.2090 H   0  0  0  0  0  0  0  0  0  0  0  0
   -0.1340   11.7890   20.0960 C   0  0  0  0  0  0  0  0  0  0  0  0
    0.3320   12.8690   20.4500 O   0  0  0  0  0  0  0  0  0  0  0  0
   -0.9600   11.6360   18.9960 N   0  0  0  0  0  0  0  0  0  0  0  0
   -1.3220   12.8050   18.2060 C   0  0  0  0  0  0  0  0  0  0  0  0
   -1.7150   12.2450   16.8500 C   0  0  0  0  0  0  0  0  0  0  0  0
   -2.2590   10.8790   17.2280 C   0  0  2  0  0  0  0  0  0  0  0  0
   -1.3640   10.3840   18.3590 C   0  0  0  0  0  0  0  0  0  0  0  0
   -2.5400    9.8670   16.1090 C   0  0  0  0  0  0  0  0  0  0  0  0
   -3.7960    9.4890   16.7290 O   0  0  0  0  0  0  0  0  0  0  0  0
   -3.7700   10.6990   17.5400 C   0  0  2  0  0  0  0  0  0  0  0  0
   -4.9760   11.8890   16.9640 Cl  0  0  0  0  0  0  0  0  0  0  0  0
   -0.4990   13.5240   18.1400 H   0  0  0  0  0  0  0  0  0  0  0  0
   -2.1730   13.2840   18.7020 H   0  0  0  0  0  0  0  0  0  0  0  0
   -0.8180   12.1290   16.2280 H   0  0  0  0  0  0  0  0  0  0  0  0
   -2.4110   12.8910   16.3120 H   0  0  0  0  0  0  0  0  0  0  0  0
   -0.4570    9.8980   17.9810 H   0  0  0  0  0  0  0  0  0  0  0  0
   -1.8660    9.7150   19.0600 H   0  0  0  0  0  0  0  0  0  0  0  0
   -1.8470    9.0220   16.0410 H   0  0  0  0  0  0  0  0  0  0  0  0
   -2.7060   10.2850   15.1110 H   0  0  0  0  0  0  0  0  0  0  0  0
   -4.0070   10.4710   18.5850 H   0  0  0  0  0  0  0  0  0  0  0  0
  1  4  1  0  0  0  0
  2 34  1  0  0  0  0
  2  1  1  0  0  0  0
  3  2  2  0  0  0  0
  5  6  2  0  0  0  0
  5 10  1  0  0  0  0
  6  7  1  0  0  0  0
  7  1  1  0  0  0  0
  7  8  2  0  0  0  0
  8 12  1  0  0  0  0
  9  8  1  0  0  0  0
  9 13  1  0  0  0  0
 10  9  2  0  0  0  0
 11  6  1  0  0  0  0
 14 10  1  0  0  0  0
 15 16  1  1  0  0  0
 15  5  1  0  0  0  0
 17 18  1  0  0  0  0
 17 19  1  0  0  0  0
 17 15  1  0  0  0  0
 20 17  1  0  0  0  0
 21 23  1  0  0  0  0
 21 15  1  0  0  0  0
 22 21  1  0  0  0  0
 24 21  1  0  0  0  0
 24 28  1  0  0  0  0
 25 26  1  0  0  0  0
 25 24  2  0  0  0  0
 26 27  2  0  0  0  0
 27 29  1  0  0  0  0
 27 28  1  0  0  0  0
 28 30  1  0  0  0  0
 30 32  1  0  0  0  0
 30 33  1  0  0  0  0
 30 31  1  0  0  0  0
 34 35  1  0  0  0  0
 35 36  2  0  0  0  0
 36 40  1  0  0  0  0
 37 41  1  0  0  0  0
 37 36  1  0  0  0  0
 38 37  2  0  0  0  0
 39 38  1  0  0  0  0
 39 34  2  0  0  0  0
 42 39  1  0  0  0  0
 43 44  2  0  0  0  0
 43 38  1  0  0  0  0
 45 43  1  0  0  0  0
 46 55  1  0  0  0  0
 46 45  1  0  0  0  0
 47 48  1  0  0  0  0
 47 46  1  0  0  0  0
 48 50  1  6  0  0  0
 48 52  1  0  0  0  0
 48 49  1  0  0  0  0
 49 45  1  0  0  0  0
 49 59  1  0  0  0  0
 50 51  1  0  0  0  0
 51 52  1  0  0  0  0
 52 62  1  1  0  0  0
 53 52  1  0  0  0  0
 54 46  1  0  0  0  0
 56 47  1  0  0  0  0
 57 47  1  0  0  0  0
 58 49  1  0  0  0  0
 60 50  1  0  0  0  0
 61 50  1  0  0  0  0
M  END
>  <MODEL>
11

>  <REMARK>
 VINA RESULT:    -7.974      2.383      3.518
 INTER + INTRA:         -10.878
 INTER:                 -10.537
 INTRA:                  -0.341
 UNBOUND:                 0.359
  Name = 
  8 active torsions:
  status: ('A' for Active; 'I' for Inactive)
    1  A    between atoms: C_1  and  C_2
    2  A    between atoms: C_2  and  C_3
    3  A    between atoms: C_2  and  C_10
    4  A    between atoms: C_3  and  C_4
    5  A    between atoms: N_8  and  C_9
    6  A    between atoms: C_12  and  N_16
    7  A    between atoms: C_17  and  C_19
    8  A    between atoms: C_23  and  C_25
                            x       y       z     vdW  Elec       q    Type
                         _______ _______ _______ _____ _____    ______ ____

>  <TORSDO>
F 8

$$$$
=
 OpenBabel07192307433D

 62 66  0  0  1  0  0  0  0  0999 V2000
    2.4820    7.7460   18.8570 N   0  0  0  0  0  0  0  0  0  0  0  0
    1.9450    7.4610   20.0980 C   0  0  0  0  0  0  0  0  0  0  0  0
    2.0970    6.4440   20.7640 O   0  0  0  0  0  0  0  0  0  0  0  0
    2.2190    8.6600   18.4930 H   0  0  0  0  0  0  0  0  0  0  0  0
    3.7070    4.7010   17.1380 C   0  0  0  0  0  0  0  0  0  0  0  0
    2.9350    5.5930   17.9060 C   0  0  0  0  0  0  0  0  0  0  0  0
    3.3070    6.9370   18.0570 C   0  0  0  0  0  0  0  0  0  0  0  0
    4.4600    7.3960   17.4190 C   0  0  0  0  0  0  0  0  0  0  0  0
    5.2330    6.5250   16.6480 C   0  0  0  0  0  0  0  0  0  0  0  0
    4.8600    5.1890   16.5080 C   0  0  0  0  0  0  0  0  0  0  0  0
    2.0310    5.2350   18.3920 H   0  0  0  0  0  0  0  0  0  0  0  0
    4.7880    8.4280   17.5080 H   0  0  0  0  0  0  0  0  0  0  0  0
    6.1310    6.8940   16.1580 H   0  0  0  0  0  0  0  0  0  0  0  0
    5.4770    4.5310   15.9000 H   0  0  0  0  0  0  0  0  0  0  0  0
    3.3040    3.2450   16.9360 C   0  0  1  0  0  0  0  0  0  0  0  0
    2.9490    3.1380   15.9010 H   0  0  0  0  0  0  0  0  0  0  0  0
    4.5030    2.2960   17.0880 C   0  0  0  0  0  0  0  0  0  0  0  0
    5.4150    2.8560   17.3300 H   0  0  0  0  0  0  0  0  0  0  0  0
    4.3450    1.5560   17.8790 H   0  0  0  0  0  0  0  0  0  0  0  0
    4.6940    1.7450   16.1620 H   0  0  0  0  0  0  0  0  0  0  0  0
    2.1500    2.8930   17.9000 C   0  0  0  0  0  0  0  0  0  0  0  0
    1.3820    3.6770   17.8650 H   0  0  0  0  0  0  0  0  0  0  0  0
    1.6670    1.9650   17.5650 H   0  0  0  0  0  0  0  0  0  0  0  0
    2.5830    2.6880   19.3140 C   0  0  0  0  0  0  0  0  0  0  0  0
    3.7150    2.1660   19.7430 N   0  0  0  0  0  0  0  0  0  0  0  0
    3.6960    2.1610   21.1180 N   0  0  0  0  0  0  0  0  0  0  0  0
    2.5480    2.6680   21.5000 C   0  0  0  0  0  0  0  0  0  0  0  0
    1.8180    3.0090   20.4060 N   0  0  0  0  0  0  0  0  0  0  0  0
    2.2180    2.8010   22.5210 H   0  0  0  0  0  0  0  0  0  0  0  0
    0.4990    3.5830   20.4100 C   0  0  0  0  0  0  0  0  0  0  0  0
   -0.0380    3.2120   21.2860 H   0  0  0  0  0  0  0  0  0  0  0  0
    0.5900    4.6720   20.4460 H   0  0  0  0  0  0  0  0  0  0  0  0
   -0.0310    3.2900   19.4990 H   0  0  0  0  0  0  0  0  0  0  0  0
    1.0800    8.5670   20.6260 C   0  0  0  0  0  0  0  0  0  0  0  0
    0.6490    8.4310   21.9150 N   0  0  0  0  0  0  0  0  0  0  0  0
   -0.1280    9.4230   22.4040 C   0  0  0  0  0  0  0  0  0  0  0  0
   -0.4820   10.5450   21.6790 C   0  0  0  0  0  0  0  0  0  0  0  0
   -0.0030   10.6580   20.3750 C   0  0  0  0  0  0  0  0  0  0  0  0
    0.7710    9.6470   19.8170 C   0  0  0  0  0  0  0  0  0  0  0  0
   -0.4710    9.2870   23.4260 H   0  0  0  0  0  0  0  0  0  0  0  0
   -1.1210   11.3090   22.1100 H   0  0  0  0  0  0  0  0  0  0  0  0
    1.1070    9.6880   18.7870 H   0  0  0  0  0  0  0  0  0  0  0  0
   -0.4110   11.8300   19.5760 C   0  0  0  0  0  0  0  0  0  0  0  0
   -1.5410   11.8210   19.0940 O   0  0  0  0  0  0  0  0  0  0  0  0
    0.4710   12.8870   19.4350 N   0  0  0  0  0  0  0  0  0  0  0  0
    0.0670   14.0600   18.6710 C   0  0  0  0  0  0  0  0  0  0  0  0
    0.9650   15.1750   19.1750 C   0  0  0  0  0  0  0  0  0  0  0  0
    2.2180   14.4110   19.5610 C   0  0  2  0  0  0  0  0  0  0  0  0
    1.7250   13.0970   20.1590 C   0  0  0  0  0  0  0  0  0  0  0  0
    3.3040   15.1400   20.3630 C   0  0  0  0  0  0  0  0  0  0  0  0
    4.3450   14.5550   19.5400 O   0  0  0  0  0  0  0  0  0  0  0  0
    3.3580   14.2040   18.5270 C   0  0  2  0  0  0  0  0  0  0  0  0
    3.5010   15.2660   17.0920 Cl  0  0  0  0  0  0  0  0  0  0  0  0
   -0.9960   14.2850   18.8020 H   0  0  0  0  0  0  0  0  0  0  0  0
    0.2570   13.8410   17.6140 H   0  0  0  0  0  0  0  0  0  0  0  0
    0.5170   15.6300   20.0680 H   0  0  0  0  0  0  0  0  0  0  0  0
    1.1110   15.9670   18.4380 H   0  0  0  0  0  0  0  0  0  0  0  0
    1.4790   13.1970   21.2220 H   0  0  0  0  0  0  0  0  0  0  0  0
    2.4150   12.2630   20.0250 H   0  0  0  0  0  0  0  0  0  0  0  0
    3.4020   14.8490   21.4140 H   0  0  0  0  0  0  0  0  0  0  0  0
    3.3110   16.2320   20.2840 H   0  0  0  0  0  0  0  0  0  0  0  0
    3.4990   13.1720   18.1870 H   0  0  0  0  0  0  0  0  0  0  0  0
  1  2  1  0  0  0  0
  2 34  1  0  0  0  0
  2  3  2  0  0  0  0
  4  1  1  0  0  0  0
  5  6  1  0  0  0  0
  6  7  2  0  0  0  0
  6 11  1  0  0  0  0
  7  1  1  0  0  0  0
  8 12  1  0  0  0  0
  8  7  1  0  0  0  0
  9  8  2  0  0  0  0
 10  9  1  0  0  0  0
 10  5  2  0  0  0  0
 13  9  1  0  0  0  0
 14 10  1  0  0  0  0
 15 16  1  6  0  0  0
 15 17  1  0  0  0  0
 15  5  1  0  0  0  0
 15 21  1  0  0  0  0
 17 18  1  0  0  0  0
 17 19  1  0  0  0  0
 20 17  1  0  0  0  0
 21 24  1  0  0  0  0
 22 21  1  0  0  0  0
 23 21  1  0  0  0  0
 24 25  2  0  0  0  0
 24 28  1  0  0  0  0
 25 26  1  0  0  0  0
 26 27  2  0  0  0  0
 27 29  1  0  0  0  0
 28 30  1  0  0  0  0
 28 27  1  0  0  0  0
 30 32  1  0  0  0  0
 30 31  1  0  0  0  0
 33 30  1  0  0  0  0
 34 35  1  0  0  0  0
 35 36  2  0  0  0  0
 36 40  1  0  0  0  0
 37 41  1  0  0  0  0
 37 36  1  0  0  0  0
 38 37  2  0  0  0  0
 39 38  1  0  0  0  0
 39 34  2  0  0  0  0
 42 39  1  0  0  0  0
 43 38  1  0  0  0  0
 44 43  2  0  0  0  0
 45 43  1  0  0  0  0
 45 49  1  0  0  0  0
 46 54  1  0  0  0  0
 46 47  1  0  0  0  0
 46 45  1  0  0  0  0
 47 56  1  0  0  0  0
 48 47  1  6  0  0  0
 48 49  1  0  0  0  0
 48 50  1  0  0  0  0
 49 58  1  0  0  0  0
 50 60  1  0  0  0  0
 51 50  1  0  0  0  0
 52 62  1  6  0  0  0
 52 51  1  0  0  0  0
 52 48  1  0  0  0  0
 53 52  1  0  0  0  0
 55 46  1  0  0  0  0
 57 47  1  0  0  0  0
 59 49  1  0  0  0  0
 61 50  1  0  0  0  0
M  END
>  <MODEL>
12

>  <REMARK>
 VINA RESULT:    -7.733      1.918      3.330
 INTER + INTRA:         -10.538
 INTER:                 -10.375
 INTRA:                  -0.163
 UNBOUND:                 0.359
  Name = 
  8 active torsions:
  status: ('A' for Active; 'I' for Inactive)
    1  A    between atoms: C_1  and  C_2
    2  A    between atoms: C_2  and  C_3
    3  A    between atoms: C_2  and  C_10
    4  A    between atoms: C_3  and  C_4
    5  A    between atoms: N_8  and  C_9
    6  A    between atoms: C_12  and  N_16
    7  A    between atoms: C_17  and  C_19
    8  A    between atoms: C_23  and  C_25
                            x       y       z     vdW  Elec       q    Type
                         _______ _______ _______ _____ _____    ______ ____

>  <TORSDO>
F 8

$$$$
=
 OpenBabel07192307433D

 62 66  0  0  1  0  0  0  0  0999 V2000
    1.5440    9.7710   20.1520 N   0  0  0  0  0  0  0  0  0  0  0  0
    0.4310   10.5350   19.8550 C   0  0  0  0  0  0  0  0  0  0  0  0
   -0.6690   10.1420   19.4870 O   0  0  0  0  0  0  0  0  0  0  0  0
    2.3540   10.3150   20.4420 H   0  0  0  0  0  0  0  0  0  0  0  0
    2.5590    6.4670   18.8180 C   0  0  0  0  0  0  0  0  0  0  0  0
    2.3780    7.8530   18.9820 C   0  0  0  0  0  0  0  0  0  0  0  0
    1.6860    8.3740   20.0850 C   0  0  0  0  0  0  0  0  0  0  0  0
    1.1800    7.4960   21.0430 C   0  0  0  0  0  0  0  0  0  0  0  0
    1.3560    6.1170   20.8980 C   0  0  0  0  0  0  0  0  0  0  0  0
    2.0400    5.6070   19.7950 C   0  0  0  0  0  0  0  0  0  0  0  0
    2.7850    8.5360   18.2400 H   0  0  0  0  0  0  0  0  0  0  0  0
    0.6360    7.8520   21.9130 H   0  0  0  0  0  0  0  0  0  0  0  0
    0.9540    5.4420   21.6500 H   0  0  0  0  0  0  0  0  0  0  0  0
    2.1660    4.5300   19.7070 H   0  0  0  0  0  0  0  0  0  0  0  0
    3.3350    5.8820   17.6430 C   0  0  1  0  0  0  0  0  0  0  0  0
    2.6060    5.6030   16.8680 H   0  0  0  0  0  0  0  0  0  0  0  0
    4.2740    6.9200   17.0080 C   0  0  0  0  0  0  0  0  0  0  0  0
    4.6180    7.6450   17.7570 H   0  0  0  0  0  0  0  0  0  0  0  0
    5.1590    6.4550   16.5620 H   0  0  0  0  0  0  0  0  0  0  0  0
    3.7690    7.4810   16.2170 H   0  0  0  0  0  0  0  0  0  0  0  0
    4.0850    4.6140   18.1040 C   0  0  0  0  0  0  0  0  0  0  0  0
    3.6520    4.2440   19.0430 H   0  0  0  0  0  0  0  0  0  0  0  0
    3.9470    3.8190   17.3590 H   0  0  0  0  0  0  0  0  0  0  0  0
    5.5550    4.8110   18.2820 C   0  0  0  0  0  0  0  0  0  0  0  0
    6.1800    5.3160   19.3260 N   0  0  0  0  0  0  0  0  0  0  0  0
    7.5290    5.3190   19.0640 N   0  0  0  0  0  0  0  0  0  0  0  0
    7.7000    4.8280   17.8600 C   0  0  0  0  0  0  0  0  0  0  0  0
    6.4920    4.4990   17.3310 N   0  0  0  0  0  0  0  0  0  0  0  0
    8.6460    4.6980   17.3520 H   0  0  0  0  0  0  0  0  0  0  0  0
    6.2590    3.9430   16.0250 C   0  0  0  0  0  0  0  0  0  0  0  0
    6.2710    4.7560   15.2940 H   0  0  0  0  0  0  0  0  0  0  0  0
    7.0470    3.2170   15.8060 H   0  0  0  0  0  0  0  0  0  0  0  0
    5.2860    3.4450   16.0060 H   0  0  0  0  0  0  0  0  0  0  0  0
    0.6760   12.0060   20.0160 C   0  0  0  0  0  0  0  0  0  0  0  0
   -0.4130   12.7650   20.3360 N   0  0  0  0  0  0  0  0  0  0  0  0
   -0.2060   14.0920   20.4880 C   0  0  0  0  0  0  0  0  0  0  0  0
    1.0310   14.6930   20.3510 C   0  0  0  0  0  0  0  0  0  0  0  0
    2.1220   13.8810   20.0470 C   0  0  0  0  0  0  0  0  0  0  0  0
    1.9520   12.5160   19.8470 C   0  0  0  0  0  0  0  0  0  0  0  0
   -1.0890   14.6780   20.7280 H   0  0  0  0  0  0  0  0  0  0  0  0
    1.1450   15.7660   20.4680 H   0  0  0  0  0  0  0  0  0  0  0  0
    2.7750   11.8740   19.5540 H   0  0  0  0  0  0  0  0  0  0  0  0
    3.4390   14.5170   19.8540 C   0  0  0  0  0  0  0  0  0  0  0  0
    3.6240   15.1300   18.8050 O   0  0  0  0  0  0  0  0  0  0  0  0
    4.3830   14.4280   20.8630 N   0  0  0  0  0  0  0  0  0  0  0  0
    5.6770   15.0750   20.6920 C   0  0  0  0  0  0  0  0  0  0  0  0
    6.1990   15.2670   22.1050 C   0  0  0  0  0  0  0  0  0  0  0  0
    5.5720   14.0890   22.8270 C   0  0  2  0  0  0  0  0  0  0  0  0
    4.1780   13.9380   22.2250 C   0  0  0  0  0  0  0  0  0  0  0  0
    5.6430   14.0460   24.3590 C   0  0  0  0  0  0  0  0  0  0  0  0
    5.9770   12.6350   24.3320 O   0  0  0  0  0  0  0  0  0  0  0  0
    6.3300   12.7360   22.9230 C   0  0  2  0  0  0  0  0  0  0  0  0
    8.1040   12.6600   22.6940 Cl  0  0  0  0  0  0  0  0  0  0  0  0
    5.5910   16.0200   20.1450 H   0  0  0  0  0  0  0  0  0  0  0  0
    6.3120   14.3900   20.1210 H   0  0  0  0  0  0  0  0  0  0  0  0
    5.8070   16.2070   22.5150 H   0  0  0  0  0  0  0  0  0  0  0  0
    7.2890   15.3150   22.1490 H   0  0  0  0  0  0  0  0  0  0  0  0
    3.4500   14.5990   22.7070 H   0  0  0  0  0  0  0  0  0  0  0  0
    3.8000   12.9140   22.2360 H   0  0  0  0  0  0  0  0  0  0  0  0
    4.7030   14.2340   24.8890 H   0  0  0  0  0  0  0  0  0  0  0  0
    6.4460   14.6300   24.8210 H   0  0  0  0  0  0  0  0  0  0  0  0
    5.8890   11.9120   22.3510 H   0  0  0  0  0  0  0  0  0  0  0  0
  1  4  1  0  0  0  0
  2 34  1  0  0  0  0
  2  1  1  0  0  0  0
  3  2  2  0  0  0  0
  5  6  2  0  0  0  0
  5 10  1  0  0  0  0
  6  7  1  0  0  0  0
  7  1  1  0  0  0  0
  7  8  2  0  0  0  0
  8 12  1  0  0  0  0
  9  8  1  0  0  0  0
  9 13  1  0  0  0  0
 10  9  2  0  0  0  0
 11  6  1  0  0  0  0
 14 10  1  0  0  0  0
 15 16  1  6  0  0  0
 15 21  1  0  0  0  0
 15  5  1  0  0  0  0
 17 15  1  0  0  0  0
 17 18  1  0  0  0  0
 19 17  1  0  0  0  0
 20 17  1  0  0  0  0
 21 24  1  0  0  0  0
 21 22  1  0  0  0  0
 23 21  1  0  0  0  0
 24 25  2  0  0  0  0
 26 25  1  0  0  0  0
 27 26  2  0  0  0  0
 28 27  1  0  0  0  0
 28 24  1  0  0  0  0
 29 27  1  0  0  0  0
 30 28  1  0  0  0  0
 31 30  1  0  0  0  0
 32 30  1  0  0  0  0
 33 30  1  0  0  0  0
 34 35  1  0  0  0  0
 35 36  2  0  0  0  0
 36 40  1  0  0  0  0
 37 41  1  0  0  0  0
 37 36  1  0  0  0  0
 38 37  2  0  0  0  0
 39 34  2  0  0  0  0
 39 38  1  0  0  0  0
 42 39  1  0  0  0  0
 43 38  1  0  0  0  0
 43 45  1  0  0  0  0
 44 43  2  0  0  0  0
 45 49  1  0  0  0  0
 46 45  1  0  0  0  0
 46 47  1  0  0  0  0
 47 57  1  0  0  0  0
 47 56  1  0  0  0  0
 48 47  1  6  0  0  0
 48 52  1  0  0  0  0
 48 50  1  0  0  0  0
 49 59  1  0  0  0  0
 49 58  1  0  0  0  0
 49 48  1  0  0  0  0
 50 61  1  0  0  0  0
 50 60  1  0  0  0  0
 51 50  1  0  0  0  0
 52 62  1  6  0  0  0
 52 51  1  0  0  0  0
 53 52  1  0  0  0  0
 54 46  1  0  0  0  0
 55 46  1  0  0  0  0
M  END
>  <MODEL>
13

>  <REMARK>
 VINA RESULT:    -7.659      2.635      4.212
 INTER + INTRA:         -10.435
 INTER:                  -9.386
 INTRA:                  -1.049
 UNBOUND:                 0.359
  Name = 
  8 active torsions:
  status: ('A' for Active; 'I' for Inactive)
    1  A    between atoms: C_1  and  C_2
    2  A    between atoms: C_2  and  C_3
    3  A    between atoms: C_2  and  C_10
    4  A    between atoms: C_3  and  C_4
    5  A    between atoms: N_8  and  C_9
    6  A    between atoms: C_12  and  N_16
    7  A    between atoms: C_17  and  C_19
    8  A    between atoms: C_23  and  C_25
                            x       y       z     vdW  Elec       q    Type
                         _______ _______ _______ _____ _____    ______ ____

>  <TORSDO>
F 8

$$$$
=
 OpenBabel07192307433D

 62 66  0  0  1  0  0  0  0  0999 V2000
    1.4750   11.0870   19.7050 N   0  0  0  0  0  0  0  0  0  0  0  0
    0.8240   10.0850   19.0120 C   0  0  0  0  0  0  0  0  0  0  0  0
   -0.0380   10.2100   18.1500 O   0  0  0  0  0  0  0  0  0  0  0  0
    2.1600   10.7470   20.3780 H   0  0  0  0  0  0  0  0  0  0  0  0
    0.1040   14.4490   20.4430 C   0  0  0  0  0  0  0  0  0  0  0  0
    0.3670   13.0670   20.4780 C   0  0  0  0  0  0  0  0  0  0  0  0
    1.2940   12.4780   19.6060 C   0  0  0  0  0  0  0  0  0  0  0  0
    1.9760   13.2860   18.6970 C   0  0  0  0  0  0  0  0  0  0  0  0
    1.7310   14.6600   18.6540 C   0  0  0  0  0  0  0  0  0  0  0  0
    0.8040   15.2380   19.5200 C   0  0  0  0  0  0  0  0  0  0  0  0
   -0.1580   12.4420   21.1960 H   0  0  0  0  0  0  0  0  0  0  0  0
    2.7020   12.8750   18.0010 H   0  0  0  0  0  0  0  0  0  0  0  0
    2.2680   15.2800   17.9390 H   0  0  0  0  0  0  0  0  0  0  0  0
    0.6330   16.3110   19.4690 H   0  0  0  0  0  0  0  0  0  0  0  0
   -0.8770   15.1140   21.4030 C   0  0  1  0  0  0  0  0  0  0  0  0
   -0.5980   16.1750   21.4810 H   0  0  0  0  0  0  0  0  0  0  0  0
   -2.3150   15.0780   20.8620 C   0  0  0  0  0  0  0  0  0  0  0  0
   -2.3200   14.9250   19.7750 H   0  0  0  0  0  0  0  0  0  0  0  0
   -2.9050   14.2740   21.3150 H   0  0  0  0  0  0  0  0  0  0  0  0
   -2.8390   16.0170   21.0620 H   0  0  0  0  0  0  0  0  0  0  0  0
   -0.7560   14.4590   22.7960 C   0  0  0  0  0  0  0  0  0  0  0  0
   -0.0310   13.6350   22.7600 H   0  0  0  0  0  0  0  0  0  0  0  0
   -0.3610   15.1950   23.5100 H   0  0  0  0  0  0  0  0  0  0  0  0
   -2.0510   13.9540   23.3420 C   0  0  0  0  0  0  0  0  0  0  0  0
   -3.0330   14.6580   23.8670 N   0  0  0  0  0  0  0  0  0  0  0  0
   -4.0310   13.7920   24.2480 N   0  0  0  0  0  0  0  0  0  0  0  0
   -3.6320   12.5770   23.9590 C   0  0  0  0  0  0  0  0  0  0  0  0
   -2.3980   12.6290   23.3940 N   0  0  0  0  0  0  0  0  0  0  0  0
   -4.1860   11.6650   24.1370 H   0  0  0  0  0  0  0  0  0  0  0  0
   -1.6180   11.5040   22.9510 C   0  0  0  0  0  0  0  0  0  0  0  0
   -0.8420   11.8660   22.2710 H   0  0  0  0  0  0  0  0  0  0  0  0
   -1.1710   11.0200   23.8240 H   0  0  0  0  0  0  0  0  0  0  0  0
   -2.2640   10.7930   22.4280 H   0  0  0  0  0  0  0  0  0  0  0  0
    1.2680    8.7120   19.4190 C   0  0  0  0  0  0  0  0  0  0  0  0
    1.1340    8.4040   20.7430 N   0  0  0  0  0  0  0  0  0  0  0  0
    1.5270    7.1690   21.1230 C   0  0  0  0  0  0  0  0  0  0  0  0
    2.0310    6.2240   20.2490 C   0  0  0  0  0  0  0  0  0  0  0  0
    2.1300    6.5680   18.9020 C   0  0  0  0  0  0  0  0  0  0  0  0
    1.7710    7.8390   18.4700 C   0  0  0  0  0  0  0  0  0  0  0  0
    1.4260    6.9500   22.1830 H   0  0  0  0  0  0  0  0  0  0  0  0
    2.3480    5.2480   20.6040 H   0  0  0  0  0  0  0  0  0  0  0  0
    1.8930    8.1470   17.4370 H   0  0  0  0  0  0  0  0  0  0  0  0
    2.7090    5.5840   17.9660 C   0  0  0  0  0  0  0  0  0  0  0  0
    1.9520    4.7410   17.4920 O   0  0  0  0  0  0  0  0  0  0  0  0
    4.0520    5.6730   17.6430 N   0  0  0  0  0  0  0  0  0  0  0  0
    4.6250    4.7220   16.7000 C   0  0  0  0  0  0  0  0  0  0  0  0
    5.8650    5.4140   16.1630 C   0  0  0  0  0  0  0  0  0  0  0  0
    6.2740    6.2740   17.3460 C   0  0  2  0  0  0  0  0  0  0  0  0
    4.9670    6.7680   17.9590 C   0  0  0  0  0  0  0  0  0  0  0  0
    7.3560    7.3410   17.1370 C   0  0  0  0  0  0  0  0  0  0  0  0
    7.9910    6.9830   18.3910 O   0  0  0  0  0  0  0  0  0  0  0  0
    7.2620    5.7220   18.4100 C   0  0  2  0  0  0  0  0  0  0  0  0
    8.3420    4.3450   18.0330 Cl  0  0  0  0  0  0  0  0  0  0  0  0
    3.9170    4.4560   15.9080 H   0  0  0  0  0  0  0  0  0  0  0  0
    4.8840    3.8190   17.2640 H   0  0  0  0  0  0  0  0  0  0  0  0
    5.5890    6.0540   15.3150 H   0  0  0  0  0  0  0  0  0  0  0  0
    6.6240    4.7110   15.8140 H   0  0  0  0  0  0  0  0  0  0  0  0
    4.5930    7.6670   17.4580 H   0  0  0  0  0  0  0  0  0  0  0  0
    5.0250    6.9510   19.0340 H   0  0  0  0  0  0  0  0  0  0  0  0
    7.0120    8.3800   17.1350 H   0  0  0  0  0  0  0  0  0  0  0  0
    8.0360    7.1800   16.2940 H   0  0  0  0  0  0  0  0  0  0  0  0
    6.8280    5.5380   19.3990 H   0  0  0  0  0  0  0  0  0  0  0  0
  1  4  1  0  0  0  0
  2 34  1  0  0  0  0
  2  1  1  0  0  0  0
  3  2  2  0  0  0  0
  5  6  1  0  0  0  0
  5 15  1  0  0  0  0
  6 11  1  0  0  0  0
  7  1  1  0  0  0  0
  7  6  2  0  0  0  0
  8  7  1  0  0  0  0
  9  8  2  0  0  0  0
  9 10  1  0  0  0  0
 10  5  2  0  0  0  0
 12  8  1  0  0  0  0
 13  9  1  0  0  0  0
 14 10  1  0  0  0  0
 15 16  1  1  0  0  0
 15 21  1  0  0  0  0
 17 20  1  0  0  0  0
 17 19  1  0  0  0  0
 17 15  1  0  0  0  0
 18 17  1  0  0  0  0
 21 24  1  0  0  0  0
 21 23  1  0  0  0  0
 22 21  1  0  0  0  0
 24 28  1  0  0  0  0
 24 25  2  0  0  0  0
 25 26  1  0  0  0  0
 27 29  1  0  0  0  0
 27 26  2  0  0  0  0
 28 27  1  0  0  0  0
 30 28  1  0  0  0  0
 30 32  1  0  0  0  0
 31 30  1  0  0  0  0
 33 30  1  0  0  0  0
 34 35  1  0  0  0  0
 35 36  2  0  0  0  0
 36 40  1  0  0  0  0
 37 41  1  0  0  0  0
 37 36  1  0  0  0  0
 38 37  2  0  0  0  0
 39 38  1  0  0  0  0
 39 34  2  0  0  0  0
 42 39  1  0  0  0  0
 43 38  1  0  0  0  0
 44 43  2  0  0  0  0
 45 49  1  0  0  0  0
 45 43  1  0  0  0  0
 46 55  1  0  0  0  0
 46 45  1  0  0  0  0
 47 46  1  0  0  0  0
 48 47  1  6  0  0  0
 48 49  1  0  0  0  0
 48 52  1  0  0  0  0
 49 59  1  0  0  0  0
 50 48  1  0  0  0  0
 50 51  1  0  0  0  0
 51 52  1  0  0  0  0
 52 62  1  1  0  0  0
 53 52  1  0  0  0  0
 54 46  1  0  0  0  0
 56 47  1  0  0  0  0
 57 47  1  0  0  0  0
 58 49  1  0  0  0  0
 60 50  1  0  0  0  0
 61 50  1  0  0  0  0
M  END
>  <MODEL>
14

>  <REMARK>
 VINA RESULT:    -7.653      3.460     10.151
 INTER + INTRA:         -10.426
 INTER:                  -9.613
 INTRA:                  -0.813
 UNBOUND:                 0.359
  Name = 
  8 active torsions:
  status: ('A' for Active; 'I' for Inactive)
    1  A    between atoms: C_1  and  C_2
    2  A    between atoms: C_2  and  C_3
    3  A    between atoms: C_2  and  C_10
    4  A    between atoms: C_3  and  C_4
    5  A    between atoms: N_8  and  C_9
    6  A    between atoms: C_12  and  N_16
    7  A    between atoms: C_17  and  C_19
    8  A    between atoms: C_23  and  C_25
                            x       y       z     vdW  Elec       q    Type
                         _______ _______ _______ _____ _____    ______ ____

>  <TORSDO>
F 8

$$$$
=
 OpenBabel07192307433D

 62 66  0  0  1  0  0  0  0  0999 V2000
    8.5920    9.0390   18.6810 N   0  0  0  0  0  0  0  0  0  0  0  0
    7.5940    8.5940   17.8350 C   0  0  0  0  0  0  0  0  0  0  0  0
    6.8940    9.2640   17.0850 O   0  0  0  0  0  0  0  0  0  0  0  0
    9.0450    8.2970   19.2120 H   0  0  0  0  0  0  0  0  0  0  0  0
    9.4400   12.1290   20.5400 C   0  0  0  0  0  0  0  0  0  0  0  0
    9.0360   10.8190   20.2230 C   0  0  0  0  0  0  0  0  0  0  0  0
    9.0280   10.3570   18.8980 C   0  0  0  0  0  0  0  0  0  0  0  0
    9.4430   11.2150   17.8800 C   0  0  0  0  0  0  0  0  0  0  0  0
    9.8530   12.5170   18.1780 C   0  0  0  0  0  0  0  0  0  0  0  0
    9.8530   12.9700   19.4970 C   0  0  0  0  0  0  0  0  0  0  0  0
    8.7250   10.1490   21.0200 H   0  0  0  0  0  0  0  0  0  0  0  0
    9.4530   10.9030   16.8390 H   0  0  0  0  0  0  0  0  0  0  0  0
   10.1720   13.1770   17.3750 H   0  0  0  0  0  0  0  0  0  0  0  0
   10.1790   13.9870   19.7040 H   0  0  0  0  0  0  0  0  0  0  0  0
    9.4860   12.6400   21.9750 C   0  0  1  0  0  0  0  0  0  0  0  0
   10.4440   12.3220   22.4120 H   0  0  0  0  0  0  0  0  0  0  0  0
    9.4680   14.1760   22.0330 C   0  0  0  0  0  0  0  0  0  0  0  0
    9.4840   14.5280   23.0730 H   0  0  0  0  0  0  0  0  0  0  0  0
   10.3280   14.6170   21.5180 H   0  0  0  0  0  0  0  0  0  0  0  0
    8.5670   14.5810   21.5640 H   0  0  0  0  0  0  0  0  0  0  0  0
    8.3320   12.0080   22.7830 C   0  0  0  0  0  0  0  0  0  0  0  0
    7.4240   11.9670   22.1670 H   0  0  0  0  0  0  0  0  0  0  0  0
    8.5900   10.9700   23.0330 H   0  0  0  0  0  0  0  0  0  0  0  0
    8.0300   12.7160   24.0620 C   0  0  0  0  0  0  0  0  0  0  0  0
    8.7360   12.7070   25.1750 N   0  0  0  0  0  0  0  0  0  0  0  0
    8.0890   13.4870   26.1040 N   0  0  0  0  0  0  0  0  0  0  0  0
    6.9960   13.9460   25.5440 C   0  0  0  0  0  0  0  0  0  0  0  0
    6.9150   13.4870   24.2680 N   0  0  0  0  0  0  0  0  0  0  0  0
    6.2620   14.5890   26.0110 H   0  0  0  0  0  0  0  0  0  0  0  0
    5.8560   13.7590   23.3330 C   0  0  0  0  0  0  0  0  0  0  0  0
    5.8200   14.8370   23.1520 H   0  0  0  0  0  0  0  0  0  0  0  0
    6.0590   13.2190   22.4040 H   0  0  0  0  0  0  0  0  0  0  0  0
    4.9020   13.4230   23.7520 H   0  0  0  0  0  0  0  0  0  0  0  0
    7.3930    7.1080   17.9020 C   0  0  0  0  0  0  0  0  0  0  0  0
    8.3850    6.3950   18.5120 N   0  0  0  0  0  0  0  0  0  0  0  0
    8.2160    5.0560   18.5820 C   0  0  0  0  0  0  0  0  0  0  0  0
    7.1040    4.4000   18.0900 C   0  0  0  0  0  0  0  0  0  0  0  0
    6.1020    5.1660   17.4960 C   0  0  0  0  0  0  0  0  0  0  0  0
    6.2480    6.5420   17.3700 C   0  0  0  0  0  0  0  0  0  0  0  0
    9.0230    4.5070   19.0580 H   0  0  0  0  0  0  0  0  0  0  0  0
    7.0180    3.3190   18.1570 H   0  0  0  0  0  0  0  0  0  0  0  0
    5.5090    7.1510   16.8610 H   0  0  0  0  0  0  0  0  0  0  0  0
    4.9310    4.4710   16.9270 C   0  0  0  0  0  0  0  0  0  0  0  0
    4.8240    4.4510   15.7040 O   0  0  0  0  0  0  0  0  0  0  0  0
    4.0350    3.8540   17.7830 N   0  0  0  0  0  0  0  0  0  0  0  0
    2.8900    3.1430   17.2280 C   0  0  0  0  0  0  0  0  0  0  0  0
    2.4810    2.1670   18.3170 C   0  0  0  0  0  0  0  0  0  0  0  0
    2.8930    2.9150   19.5720 C   0  0  2  0  0  0  0  0  0  0  0  0
    4.2000    3.6170   19.2160 C   0  0  0  0  0  0  0  0  0  0  0  0
    2.8840    2.1630   20.9090 C   0  0  0  0  0  0  0  0  0  0  0  0
    2.2750    3.2970   21.5760 O   0  0  0  0  0  0  0  0  0  0  0  0
    1.8850    3.8560   20.2880 C   0  0  2  0  0  0  0  0  0  0  0  0
    0.1230    3.6910   20.0180 Cl  0  0  0  0  0  0  0  0  0  0  0  0
    3.1380    2.6430   16.2870 H   0  0  0  0  0  0  0  0  0  0  0  0
    2.1050    3.8850   17.0420 H   0  0  0  0  0  0  0  0  0  0  0  0
    3.0710    1.2450   18.2220 H   0  0  0  0  0  0  0  0  0  0  0  0
    1.4260    1.8920   18.2630 H   0  0  0  0  0  0  0  0  0  0  0  0
    5.0670    2.9590   19.3450 H   0  0  0  0  0  0  0  0  0  0  0  0
    4.3660    4.5450   19.7650 H   0  0  0  0  0  0  0  0  0  0  0  0
    3.8650    1.9200   21.3300 H   0  0  0  0  0  0  0  0  0  0  0  0
    2.2360    1.2820   20.9640 H   0  0  0  0  0  0  0  0  0  0  0  0
    2.1270    4.9230   20.2370 H   0  0  0  0  0  0  0  0  0  0  0  0
  1  7  1  0  0  0  0
  1  4  1  0  0  0  0
  2 34  1  0  0  0  0
  2  1  1  0  0  0  0
  3  2  2  0  0  0  0
  5 15  1  0  0  0  0
  6  5  1  0  0  0  0
  6 11  1  0  0  0  0
  7  6  2  0  0  0  0
  8  9  2  0  0  0  0
  8  7  1  0  0  0  0
  9 10  1  0  0  0  0
 10 14  1  0  0  0  0
 10  5  2  0  0  0  0
 12  8  1  0  0  0  0
 13  9  1  0  0  0  0
 15 17  1  0  0  0  0
 15 16  1  1  0  0  0
 15 21  1  0  0  0  0
 17 18  1  0  0  0  0
 19 17  1  0  0  0  0
 20 17  1  0  0  0  0
 21 23  1  0  0  0  0
 21 24  1  0  0  0  0
 22 21  1  0  0  0  0
 24 28  1  0  0  0  0
 24 25  2  0  0  0  0
 25 26  1  0  0  0  0
 27 29  1  0  0  0  0
 27 26  2  0  0  0  0
 28 27  1  0  0  0  0
 30 33  1  0  0  0  0
 30 28  1  0  0  0  0
 31 30  1  0  0  0  0
 32 30  1  0  0  0  0
 34 35  1  0  0  0  0
 35 36  2  0  0  0  0
 36 40  1  0  0  0  0
 37 41  1  0  0  0  0
 37 36  1  0  0  0  0
 38 37  2  0  0  0  0
 39 38  1  0  0  0  0
 39 34  2  0  0  0  0
 42 39  1  0  0  0  0
 43 38  1  0  0  0  0
 43 45  1  0  0  0  0
 44 43  2  0  0  0  0
 45 49  1  0  0  0  0
 46 45  1  0  0  0  0
 46 47  1  0  0  0  0
 48 47  1  6  0  0  0
 48 52  1  0  0  0  0
 48 50  1  0  0  0  0
 49 58  1  0  0  0  0
 49 48  1  0  0  0  0
 49 59  1  0  0  0  0
 50 61  1  0  0  0  0
 50 60  1  0  0  0  0
 50 51  1  0  0  0  0
 52 62  1  6  0  0  0
 52 51  1  0  0  0  0
 53 52  1  0  0  0  0
 54 46  1  0  0  0  0
 55 46  1  0  0  0  0
 56 47  1  0  0  0  0
 57 47  1  0  0  0  0
M  END
>  <MODEL>
15

>  <REMARK>
 VINA RESULT:    -7.588      5.436     10.854
 INTER + INTRA:         -10.335
 INTER:                  -9.690
 INTRA:                  -0.645
 UNBOUND:                 0.359
  Name = 
  8 active torsions:
  status: ('A' for Active; 'I' for Inactive)
    1  A    between atoms: C_1  and  C_2
    2  A    between atoms: C_2  and  C_3
    3  A    between atoms: C_2  and  C_10
    4  A    between atoms: C_3  and  C_4
    5  A    between atoms: N_8  and  C_9
    6  A    between atoms: C_12  and  N_16
    7  A    between atoms: C_17  and  C_19
    8  A    between atoms: C_23  and  C_25
                            x       y       z     vdW  Elec       q    Type
                         _______ _______ _______ _____ _____    ______ ____

>  <TORSDO>
F 8

$$$$
=
 OpenBabel07192307433D

 62 66  0  0  1  0  0  0  0  0999 V2000
    2.3390    6.9430   18.4900 N   0  0  0  0  0  0  0  0  0  0  0  0
    2.5250    8.1330   17.8130 C   0  0  0  0  0  0  0  0  0  0  0  0
    3.0780    8.3010   16.7330 O   0  0  0  0  0  0  0  0  0  0  0  0
    1.8470    7.0430   19.3760 H   0  0  0  0  0  0  0  0  0  0  0  0
    4.4010    4.3070   16.9010 C   0  0  0  0  0  0  0  0  0  0  0  0
    3.9150    5.5530   17.3370 C   0  0  0  0  0  0  0  0  0  0  0  0
    2.7540    5.6520   18.1180 C   0  0  0  0  0  0  0  0  0  0  0  0
    2.0790    4.4870   18.4770 C   0  0  0  0  0  0  0  0  0  0  0  0
    2.5510    3.2410   18.0570 C   0  0  0  0  0  0  0  0  0  0  0  0
    3.7030    3.1510   17.2760 C   0  0  0  0  0  0  0  0  0  0  0  0
    4.4510    6.4600   17.0650 H   0  0  0  0  0  0  0  0  0  0  0  0
    1.1750    4.5130   19.0790 H   0  0  0  0  0  0  0  0  0  0  0  0
    2.0140    2.3380   18.3420 H   0  0  0  0  0  0  0  0  0  0  0  0
    4.0520    2.1690   16.9640 H   0  0  0  0  0  0  0  0  0  0  0  0
    5.6770    4.1750   16.0780 C   0  0  1  0  0  0  0  0  0  0  0  0
    6.2760    3.3650   16.5190 H   0  0  0  0  0  0  0  0  0  0  0  0
    5.3800    3.7590   14.6280 C   0  0  0  0  0  0  0  0  0  0  0  0
    5.3350    4.6380   13.9720 H   0  0  0  0  0  0  0  0  0  0  0  0
    6.1430    3.0830   14.2290 H   0  0  0  0  0  0  0  0  0  0  0  0
    4.4180    3.2440   14.5520 H   0  0  0  0  0  0  0  0  0  0  0  0
    6.4800    5.4920   16.1590 C   0  0  0  0  0  0  0  0  0  0  0  0
    7.1790    5.5560   15.3150 H   0  0  0  0  0  0  0  0  0  0  0  0
    5.7920    6.3430   16.0620 H   0  0  0  0  0  0  0  0  0  0  0  0
    7.2310    5.6650   17.4380 C   0  0  0  0  0  0  0  0  0  0  0  0
    7.6260    4.7260   18.2750 N   0  0  0  0  0  0  0  0  0  0  0  0
    8.2770    5.3290   19.3250 N   0  0  0  0  0  0  0  0  0  0  0  0
    8.2560    6.6230   19.1140 C   0  0  0  0  0  0  0  0  0  0  0  0
    7.6090    6.8810   17.9470 N   0  0  0  0  0  0  0  0  0  0  0  0
    8.6810    7.3810   19.7590 H   0  0  0  0  0  0  0  0  0  0  0  0
    7.3690    8.1800   17.3780 C   0  0  0  0  0  0  0  0  0  0  0  0
    6.4180    8.1510   16.8390 H   0  0  0  0  0  0  0  0  0  0  0  0
    7.3320    8.9160   18.1850 H   0  0  0  0  0  0  0  0  0  0  0  0
    8.1780    8.4320   16.6870 H   0  0  0  0  0  0  0  0  0  0  0  0
    1.9660    9.3150   18.5480 C   0  0  0  0  0  0  0  0  0  0  0  0
    2.1920   10.5370   17.9830 N   0  0  0  0  0  0  0  0  0  0  0  0
    1.6900   11.6100   18.6340 C   0  0  0  0  0  0  0  0  0  0  0  0
    0.9650   11.5220   19.8070 C   0  0  0  0  0  0  0  0  0  0  0  0
    0.7360   10.2550   20.3400 C   0  0  0  0  0  0  0  0  0  0  0  0
    1.2610    9.1250   19.7250 C   0  0  0  0  0  0  0  0  0  0  0  0
    1.8950   12.5730   18.1740 H   0  0  0  0  0  0  0  0  0  0  0  0
    0.5950   12.4150   20.3020 H   0  0  0  0  0  0  0  0  0  0  0  0
    1.1440    8.1350   20.1520 H   0  0  0  0  0  0  0  0  0  0  0  0
    0.0010   10.1520   21.6160 C   0  0  0  0  0  0  0  0  0  0  0  0
    0.2710    9.2050   22.3500 O   0  0  0  0  0  0  0  0  0  0  0  0
   -0.9210   11.1310   21.9410 N   0  0  0  0  0  0  0  0  0  0  0  0
   -1.6320   11.0520   23.2100 C   0  0  0  0  0  0  0  0  0  0  0  0
   -2.0850   12.4750   23.4860 C   0  0  0  0  0  0  0  0  0  0  0  0
   -2.2670   13.0180   22.0800 C   0  0  2  0  0  0  0  0  0  0  0  0
   -1.1350   12.4070   21.2590 C   0  0  0  0  0  0  0  0  0  0  0  0
   -2.4810   14.5260   21.8980 C   0  0  0  0  0  0  0  0  0  0  0  0
   -3.5270   14.2880   20.9220 O   0  0  0  0  0  0  0  0  0  0  0  0
   -3.6450   12.9080   21.3720 C   0  0  2  0  0  0  0  0  0  0  0  0
   -5.1460   12.6610   22.3150 Cl  0  0  0  0  0  0  0  0  0  0  0  0
   -0.9980   10.6520   24.0080 H   0  0  0  0  0  0  0  0  0  0  0  0
   -2.4860   10.3820   23.0640 H   0  0  0  0  0  0  0  0  0  0  0  0
   -1.2810   13.0230   23.9950 H   0  0  0  0  0  0  0  0  0  0  0  0
   -2.9710   12.5210   24.1210 H   0  0  0  0  0  0  0  0  0  0  0  0
   -0.2090   12.9860   21.3440 H   0  0  0  0  0  0  0  0  0  0  0  0
   -1.3790   12.2680   20.2050 H   0  0  0  0  0  0  0  0  0  0  0  0
   -1.6420   15.0830   21.4710 H   0  0  0  0  0  0  0  0  0  0  0  0
   -2.8720   15.0660   22.7670 H   0  0  0  0  0  0  0  0  0  0  0  0
   -3.6770   12.2220   20.5170 H   0  0  0  0  0  0  0  0  0  0  0  0
  1  4  1  0  0  0  0
  2  1  1  0  0  0  0
  2 34  1  0  0  0  0
  3  2  2  0  0  0  0
  5 10  2  0  0  0  0
  5  6  1  0  0  0  0
  6  7  2  0  0  0  0
  7  8  1  0  0  0  0
  7  1  1  0  0  0  0
  8 12  1  0  0  0  0
  9 13  1  0  0  0  0
  9  8  2  0  0  0  0
 10  9  1  0  0  0  0
 11  6  1  0  0  0  0
 14 10  1  0  0  0  0
 15 21  1  0  0  0  0
 15 16  1  1  0  0  0
 15  5  1  0  0  0  0
 17 15  1  0  0  0  0
 18 17  1  0  0  0  0
 19 17  1  0  0  0  0
 20 17  1  0  0  0  0
 21 24  1  0  0  0  0
 22 21  1  0  0  0  0
 23 21  1  0  0  0  0
 24 28  1  0  0  0  0
 24 25  2  0  0  0  0
 25 26  1  0  0  0  0
 27 26  2  0  0  0  0
 27 29  1  0  0  0  0
 28 27  1  0  0  0  0
 30 28  1  0  0  0  0
 30 32  1  0  0  0  0
 31 30  1  0  0  0  0
 33 30  1  0  0  0  0
 34 39  1  0  0  0  0
 35 34  2  0  0  0  0
 35 36  1  0  0  0  0
 36 37  2  0  0  0  0
 37 41  1  0  0  0  0
 37 38  1  0  0  0  0
 38 43  1  0  0  0  0
 39 42  1  0  0  0  0
 39 38  2  0  0  0  0
 40 36  1  0  0  0  0
 43 45  1  0  0  0  0
 43 44  2  0  0  0  0
 45 46  1  0  0  0  0
 46 47  1  0  0  0  0
 46 54  1  0  0  0  0
 47 56  1  0  0  0  0
 47 57  1  0  0  0  0
 48 49  1  6  0  0  0
 48 47  1  0  0  0  0
 49 58  1  0  0  0  0
 49 45  1  0  0  0  0
 50 48  1  0  0  0  0
 50 61  1  0  0  0  0
 51 52  1  0  0  0  0
 51 50  1  0  0  0  0
 52 62  1  6  0  0  0
 52 48  1  0  0  0  0
 52 53  1  0  0  0  0
 55 46  1  0  0  0  0
 59 49  1  0  0  0  0
 60 50  1  0  0  0  0
M  END
>  <MODEL>
16

>  <REMARK>
 VINA RESULT:    -7.573      3.181      4.346
 INTER + INTRA:         -10.313
 INTER:                 -10.652
 INTRA:                   0.339
 UNBOUND:                 0.359
  Name = 
  8 active torsions:
  status: ('A' for Active; 'I' for Inactive)
    1  A    between atoms: C_1  and  C_2
    2  A    between atoms: C_2  and  C_3
    3  A    between atoms: C_2  and  C_10
    4  A    between atoms: C_3  and  C_4
    5  A    between atoms: N_8  and  C_9
    6  A    between atoms: C_12  and  N_16
    7  A    between atoms: C_17  and  C_19
    8  A    between atoms: C_23  and  C_25
                            x       y       z     vdW  Elec       q    Type
                         _______ _______ _______ _____ _____    ______ ____

>  <TORSDO>
F 8

$$$$
=
 OpenBabel07192307433D

 62 66  0  0  1  0  0  0  0  0999 V2000
    1.6910    8.2330   18.5190 N   0  0  0  0  0  0  0  0  0  0  0  0
    1.7760    9.5630   18.1530 C   0  0  0  0  0  0  0  0  0  0  0  0
    2.7780   10.1860   17.8250 O   0  0  0  0  0  0  0  0  0  0  0  0
    0.7480    7.9270   18.7510 H   0  0  0  0  0  0  0  0  0  0  0  0
    4.9310    6.5760   17.8250 C   0  0  0  0  0  0  0  0  0  0  0  0
    3.8500    7.4760   17.8040 C   0  0  0  0  0  0  0  0  0  0  0  0
    2.7270    7.2880   18.6230 C   0  0  0  0  0  0  0  0  0  0  0  0
    2.6920    6.1910   19.4830 C   0  0  0  0  0  0  0  0  0  0  0  0
    3.7600    5.2910   19.5200 C   0  0  0  0  0  0  0  0  0  0  0  0
    4.8710    5.4810   18.6990 C   0  0  0  0  0  0  0  0  0  0  0  0
    3.8850    8.3370   17.1420 H   0  0  0  0  0  0  0  0  0  0  0  0
    1.8440    6.0030   20.1350 H   0  0  0  0  0  0  0  0  0  0  0  0
    3.7200    4.4370   20.1930 H   0  0  0  0  0  0  0  0  0  0  0  0
    5.6900    4.7680   18.7480 H   0  0  0  0  0  0  0  0  0  0  0  0
    6.1740    6.7780   16.9660 C   0  0  1  0  0  0  0  0  0  0  0  0
    5.8470    7.1780   15.9950 H   0  0  0  0  0  0  0  0  0  0  0  0
    7.1210    7.8260   17.5730 C   0  0  0  0  0  0  0  0  0  0  0  0
    7.8980    8.1130   16.8540 H   0  0  0  0  0  0  0  0  0  0  0  0
    6.5900    8.7350   17.8730 H   0  0  0  0  0  0  0  0  0  0  0  0
    7.6260    7.4370   18.4620 H   0  0  0  0  0  0  0  0  0  0  0  0
    6.8690    5.4180   16.7400 C   0  0  0  0  0  0  0  0  0  0  0  0
    7.9390    5.5030   16.9700 H   0  0  0  0  0  0  0  0  0  0  0  0
    6.4550    4.6780   17.4370 H   0  0  0  0  0  0  0  0  0  0  0  0
    6.7030    4.8760   15.3580 C   0  0  0  0  0  0  0  0  0  0  0  0
    7.4190    5.1600   14.2890 N   0  0  0  0  0  0  0  0  0  0  0  0
    6.9170    4.4410   13.2290 N   0  0  0  0  0  0  0  0  0  0  0  0
    5.8990    3.7430   13.6700 C   0  0  0  0  0  0  0  0  0  0  0  0
    5.7250    3.9850   14.9960 N   0  0  0  0  0  0  0  0  0  0  0  0
    5.2820    3.0750   13.0840 H   0  0  0  0  0  0  0  0  0  0  0  0
    4.7040    3.4180   15.8370 C   0  0  0  0  0  0  0  0  0  0  0  0
    5.1580    2.6400   16.4560 H   0  0  0  0  0  0  0  0  0  0  0  0
    4.2820    4.2110   16.4600 H   0  0  0  0  0  0  0  0  0  0  0  0
    3.9180    2.9820   15.2140 H   0  0  0  0  0  0  0  0  0  0  0  0
    0.4500   10.2630   18.1920 C   0  0  0  0  0  0  0  0  0  0  0  0
   -0.6130    9.5650   17.6930 N   0  0  0  0  0  0  0  0  0  0  0  0
   -1.8140   10.1830   17.7260 C   0  0  0  0  0  0  0  0  0  0  0  0
   -2.0090   11.4500   18.2430 C   0  0  0  0  0  0  0  0  0  0  0  0
   -0.9030   12.1200   18.7640 C   0  0  0  0  0  0  0  0  0  0  0  0
    0.3590   11.5390   18.7210 C   0  0  0  0  0  0  0  0  0  0  0  0
   -2.6440    9.6170   17.3110 H   0  0  0  0  0  0  0  0  0  0  0  0
   -2.9920   11.9120   18.2340 H   0  0  0  0  0  0  0  0  0  0  0  0
    1.2420   12.0640   19.0680 H   0  0  0  0  0  0  0  0  0  0  0  0
   -1.0900   13.4910   19.2770 C   0  0  0  0  0  0  0  0  0  0  0  0
   -0.5340   14.4030   18.6710 O   0  0  0  0  0  0  0  0  0  0  0  0
   -1.8990   13.6900   20.3830 N   0  0  0  0  0  0  0  0  0  0  0  0
   -2.1100   15.0420   20.8810 C   0  0  0  0  0  0  0  0  0  0  0  0
   -3.4090   14.9640   21.6640 C   0  0  0  0  0  0  0  0  0  0  0  0
   -3.3830   13.5300   22.1610 C   0  0  2  0  0  0  0  0  0  0  0  0
   -2.7850   12.7150   21.0180 C   0  0  0  0  0  0  0  0  0  0  0  0
   -4.6530   12.9510   22.7970 C   0  0  0  0  0  0  0  0  0  0  0  0
   -3.8760   12.3310   23.8530 O   0  0  0  0  0  0  0  0  0  0  0  0
   -2.7430   13.1900   23.5350 C   0  0  2  0  0  0  0  0  0  0  0  0
   -2.5190   14.4540   24.7820 Cl  0  0  0  0  0  0  0  0  0  0  0  0
   -2.1540   15.7740   20.0680 H   0  0  0  0  0  0  0  0  0  0  0  0
   -1.2650   15.2860   21.5330 H   0  0  0  0  0  0  0  0  0  0  0  0
   -4.2570   15.1070   20.9820 H   0  0  0  0  0  0  0  0  0  0  0  0
   -3.4790   15.7260   22.4430 H   0  0  0  0  0  0  0  0  0  0  0  0
   -3.5420   12.4270   20.2800 H   0  0  0  0  0  0  0  0  0  0  0  0
   -2.2430   11.8260   21.3450 H   0  0  0  0  0  0  0  0  0  0  0  0
   -5.1950   12.2110   22.2000 H   0  0  0  0  0  0  0  0  0  0  0  0
   -5.3610   13.6790   23.2080 H   0  0  0  0  0  0  0  0  0  0  0  0
   -1.8150   12.6080   23.4860 H   0  0  0  0  0  0  0  0  0  0  0  0
  1  7  1  0  0  0  0
  1  4  1  0  0  0  0
  2 34  1  0  0  0  0
  2  1  1  0  0  0  0
  3  2  2  0  0  0  0
  5 10  1  0  0  0  0
  6  5  2  0  0  0  0
  6  7  1  0  0  0  0
  7  8  2  0  0  0  0
  8  9  1  0  0  0  0
  8 12  1  0  0  0  0
  9 13  1  0  0  0  0
 10 14  1  0  0  0  0
 10  9  2  0  0  0  0
 11  6  1  0  0  0  0
 15 16  1  6  0  0  0
 15 17  1  0  0  0  0
 15  5  1  0  0  0  0
 17 19  1  0  0  0  0
 17 20  1  0  0  0  0
 18 17  1  0  0  0  0
 21 15  1  0  0  0  0
 21 22  1  0  0  0  0
 21 23  1  0  0  0  0
 24 21  1  0  0  0  0
 25 24  2  0  0  0  0
 26 27  2  0  0  0  0
 26 25  1  0  0  0  0
 27 28  1  0  0  0  0
 28 24  1  0  0  0  0
 28 30  1  0  0  0  0
 29 27  1  0  0  0  0
 30 31  1  0  0  0  0
 30 32  1  0  0  0  0
 33 30  1  0  0  0  0
 34 39  1  0  0  0  0
 35 36  1  0  0  0  0
 35 34  2  0  0  0  0
 36 37  2  0  0  0  0
 37 38  1  0  0  0  0
 38 43  1  0  0  0  0
 39 38  2  0  0  0  0
 39 42  1  0  0  0  0
 40 36  1  0  0  0  0
 41 37  1  0  0  0  0
 43 45  1  0  0  0  0
 44 43  2  0  0  0  0
 45 46  1  0  0  0  0
 45 49  1  0  0  0  0
 46 55  1  0  0  0  0
 46 47  1  0  0  0  0
 47 48  1  0  0  0  0
 47 57  1  0  0  0  0
 48 49  1  6  0  0  0
 48 50  1  0  0  0  0
 48 52  1  0  0  0  0
 49 59  1  0  0  0  0
 50 61  1  0  0  0  0
 50 51  1  0  0  0  0
 52 62  1  6  0  0  0
 52 51  1  0  0  0  0
 52 53  1  0  0  0  0
 54 46  1  0  0  0  0
 56 47  1  0  0  0  0
 58 49  1  0  0  0  0
 60 50  1  0  0  0  0
M  END
>  <MODEL>
17

>  <REMARK>
 VINA RESULT:    -7.560      3.190      4.642
 INTER + INTRA:         -10.294
 INTER:                  -9.983
 INTRA:                  -0.311
 UNBOUND:                 0.359
  Name = 
  8 active torsions:
  status: ('A' for Active; 'I' for Inactive)
    1  A    between atoms: C_1  and  C_2
    2  A    between atoms: C_2  and  C_3
    3  A    between atoms: C_2  and  C_10
    4  A    between atoms: C_3  and  C_4
    5  A    between atoms: N_8  and  C_9
    6  A    between atoms: C_12  and  N_16
    7  A    between atoms: C_17  and  C_19
    8  A    between atoms: C_23  and  C_25
                            x       y       z     vdW  Elec       q    Type
                         _______ _______ _______ _____ _____    ______ ____

>  <TORSDO>
F 8

$$$$
=
 OpenBabel07192307433D

 62 66  0  0  1  0  0  0  0  0999 V2000
    2.3480    7.7920   19.0280 N   0  0  0  0  0  0  0  0  0  0  0  0
    1.5940    8.8860   18.6490 C   0  0  0  0  0  0  0  0  0  0  0  0
    1.3910    9.2970   17.5120 O   0  0  0  0  0  0  0  0  0  0  0  0
    2.3750    7.6370   20.0340 H   0  0  0  0  0  0  0  0  0  0  0  0
    3.3030    4.6110   17.3880 C   0  0  0  0  0  0  0  0  0  0  0  0
    2.6330    5.5750   18.1620 C   0  0  0  0  0  0  0  0  0  0  0  0
    3.0730    6.9060   18.2120 C   0  0  0  0  0  0  0  0  0  0  0  0
    4.1920    7.2780   17.4670 C   0  0  0  0  0  0  0  0  0  0  0  0
    4.8650    6.3340   16.6880 C   0  0  0  0  0  0  0  0  0  0  0  0
    4.4240    5.0110   16.6470 C   0  0  0  0  0  0  0  0  0  0  0  0
    1.7540    5.2850   18.7330 H   0  0  0  0  0  0  0  0  0  0  0  0
    4.5710    8.2960   17.4750 H   0  0  0  0  0  0  0  0  0  0  0  0
    5.7370    6.6350   16.1120 H   0  0  0  0  0  0  0  0  0  0  0  0
    4.9640    4.2960   16.0310 H   0  0  0  0  0  0  0  0  0  0  0  0
    2.8230    3.1670   17.2940 C   0  0  1  0  0  0  0  0  0  0  0  0
    2.4680    2.9990   16.2670 H   0  0  0  0  0  0  0  0  0  0  0  0
    3.9690    2.1700   17.5300 C   0  0  0  0  0  0  0  0  0  0  0  0
    4.4690    1.9200   16.5850 H   0  0  0  0  0  0  0  0  0  0  0  0
    4.7260    2.5670   18.2140 H   0  0  0  0  0  0  0  0  0  0  0  0
    3.6000    1.2350   17.9620 H   0  0  0  0  0  0  0  0  0  0  0  0
    1.6470    2.9530   18.2710 C   0  0  0  0  0  0  0  0  0  0  0  0
    0.9060    3.7540   18.1450 H   0  0  0  0  0  0  0  0  0  0  0  0
    1.1360    2.0120   18.0250 H   0  0  0  0  0  0  0  0  0  0  0  0
    2.0560    2.8790   19.7050 C   0  0  0  0  0  0  0  0  0  0  0  0
    2.8890    2.0230   20.2630 N   0  0  0  0  0  0  0  0  0  0  0  0
    2.9720    2.3110   21.6050 N   0  0  0  0  0  0  0  0  0  0  0  0
    2.1790    3.3290   21.8410 C   0  0  0  0  0  0  0  0  0  0  0  0
    1.5820    3.7160   20.6830 N   0  0  0  0  0  0  0  0  0  0  0  0
    2.0130    3.7980   22.8010 H   0  0  0  0  0  0  0  0  0  0  0  0
    0.6350    4.7870   20.5320 C   0  0  0  0  0  0  0  0  0  0  0  0
   -0.3650    4.4000   20.7480 H   0  0  0  0  0  0  0  0  0  0  0  0
    0.8960    5.5890   21.2280 H   0  0  0  0  0  0  0  0  0  0  0  0
    0.6700    5.1660   19.5060 H   0  0  0  0  0  0  0  0  0  0  0  0
    0.9920    9.6120   19.8160 C   0  0  0  0  0  0  0  0  0  0  0  0
    0.7440    8.8590   20.9280 N   0  0  0  0  0  0  0  0  0  0  0  0
    0.2050    9.5020   21.9880 C   0  0  0  0  0  0  0  0  0  0  0  0
   -0.0820   10.8530   21.9980 C   0  0  0  0  0  0  0  0  0  0  0  0
    0.2090   11.5920   20.8510 C   0  0  0  0  0  0  0  0  0  0  0  0
    0.7310   10.9680   19.7240 C   0  0  0  0  0  0  0  0  0  0  0  0
    0.0020    8.8810   22.8560 H   0  0  0  0  0  0  0  0  0  0  0  0
   -0.5280   11.3230   22.8690 H   0  0  0  0  0  0  0  0  0  0  0  0
    0.9110   11.5110   18.8030 H   0  0  0  0  0  0  0  0  0  0  0  0
   -0.1350   13.0270   20.8340 C   0  0  0  0  0  0  0  0  0  0  0  0
    0.7390   13.8140   20.4800 O   0  0  0  0  0  0  0  0  0  0  0  0
   -1.4170   13.4150   21.1800 N   0  0  0  0  0  0  0  0  0  0  0  0
   -1.7730   14.8270   21.1400 C   0  0  0  0  0  0  0  0  0  0  0  0
   -3.2860   14.8380   21.0120 C   0  0  0  0  0  0  0  0  0  0  0  0
   -3.6660   13.5600   21.7380 C   0  0  2  0  0  0  0  0  0  0  0  0
   -2.5800   12.5510   21.3780 C   0  0  0  0  0  0  0  0  0  0  0  0
   -5.1100   13.0540   21.6230 C   0  0  0  0  0  0  0  0  0  0  0  0
   -5.1440   12.7470   23.0400 O   0  0  0  0  0  0  0  0  0  0  0  0
   -3.9750   13.5880   23.2600 C   0  0  2  0  0  0  0  0  0  0  0  0
   -4.4220   15.1150   24.0790 Cl  0  0  0  0  0  0  0  0  0  0  0  0
   -1.2780   15.3490   20.3150 H   0  0  0  0  0  0  0  0  0  0  0  0
   -1.4500   15.2710   22.0880 H   0  0  0  0  0  0  0  0  0  0  0  0
   -3.5640   14.7610   19.9520 H   0  0  0  0  0  0  0  0  0  0  0  0
   -3.7370   15.7500   21.4070 H   0  0  0  0  0  0  0  0  0  0  0  0
   -2.7850   12.0500   20.4260 H   0  0  0  0  0  0  0  0  0  0  0  0
   -2.4020   11.8000   22.1500 H   0  0  0  0  0  0  0  0  0  0  0  0
   -5.2580   12.1610   21.0080 H   0  0  0  0  0  0  0  0  0  0  0  0
   -5.8650   13.8040   21.3670 H   0  0  0  0  0  0  0  0  0  0  0  0
   -3.2420   13.0770   23.8940 H   0  0  0  0  0  0  0  0  0  0  0  0
  1  4  1  0  0  0  0
  2  1  1  0  0  0  0
  2 34  1  0  0  0  0
  3  2  2  0  0  0  0
  5  6  1  0  0  0  0
  6  7  2  0  0  0  0
  6 11  1  0  0  0  0
  7  1  1  0  0  0  0
  8 12  1  0  0  0  0
  8  7  1  0  0  0  0
  9  8  2  0  0  0  0
 10  9  1  0  0  0  0
 10  5  2  0  0  0  0
 13  9  1  0  0  0  0
 14 10  1  0  0  0  0
 15 16  1  6  0  0  0
 15  5  1  0  0  0  0
 15 17  1  0  0  0  0
 15 21  1  0  0  0  0
 17 20  1  0  0  0  0
 17 19  1  0  0  0  0
 18 17  1  0  0  0  0
 21 24  1  0  0  0  0
 22 21  1  0  0  0  0
 23 21  1  0  0  0  0
 24 25  2  0  0  0  0
 24 28  1  0  0  0  0
 25 26  1  0  0  0  0
 26 27  2  0  0  0  0
 27 29  1  0  0  0  0
 28 27  1  0  0  0  0
 30 28  1  0  0  0  0
 30 31  1  0  0  0  0
 30 32  1  0  0  0  0
 33 30  1  0  0  0  0
 34 35  1  0  0  0  0
 35 36  2  0  0  0  0
 36 37  1  0  0  0  0
 36 40  1  0  0  0  0
 37 41  1  0  0  0  0
 38 37  2  0  0  0  0
 39 34  2  0  0  0  0
 39 38  1  0  0  0  0
 42 39  1  0  0  0  0
 43 38  1  0  0  0  0
 43 45  1  0  0  0  0
 44 43  2  0  0  0  0
 45 49  1  0  0  0  0
 46 45  1  0  0  0  0
 46 55  1  0  0  0  0
 47 46  1  0  0  0  0
 47 57  1  0  0  0  0
 48 47  1  6  0  0  0
 48 52  1  0  0  0  0
 49 48  1  0  0  0  0
 49 59  1  0  0  0  0
 50 48  1  0  0  0  0
 50 51  1  0  0  0  0
 51 52  1  0  0  0  0
 52 62  1  1  0  0  0
 52 53  1  0  0  0  0
 54 46  1  0  0  0  0
 56 47  1  0  0  0  0
 58 49  1  0  0  0  0
 60 50  1  0  0  0  0
 61 50  1  0  0  0  0
M  END
>  <MODEL>
18

>  <REMARK>
 VINA RESULT:    -7.505      3.279      5.081
 INTER + INTRA:         -10.217
 INTER:                 -10.577
 INTRA:                   0.360
 UNBOUND:                 0.359
  Name = 
  8 active torsions:
  status: ('A' for Active; 'I' for Inactive)
    1  A    between atoms: C_1  and  C_2
    2  A    between atoms: C_2  and  C_3
    3  A    between atoms: C_2  and  C_10
    4  A    between atoms: C_3  and  C_4
    5  A    between atoms: N_8  and  C_9
    6  A    between atoms: C_12  and  N_16
    7  A    between atoms: C_17  and  C_19
    8  A    between atoms: C_23  and  C_25
                            x       y       z     vdW  Elec       q    Type
                         _______ _______ _______ _____ _____    ______ ____

>  <TORSDO>
F 8

$$$$
=
 OpenBabel07192307433D

 62 66  0  0  1  0  0  0  0  0999 V2000
    7.7180    8.9590   17.8370 N   0  0  0  0  0  0  0  0  0  0  0  0
    8.6120    9.6750   18.6090 C   0  0  0  0  0  0  0  0  0  0  0  0
    9.4460    9.2340   19.3900 O   0  0  0  0  0  0  0  0  0  0  0  0
    7.1160    9.5400   17.2550 H   0  0  0  0  0  0  0  0  0  0  0  0
    6.2970    5.7090   16.7680 C   0  0  0  0  0  0  0  0  0  0  0  0
    6.5640    7.0850   16.8870 C   0  0  0  0  0  0  0  0  0  0  0  0
    7.5350    7.5660   17.7770 C   0  0  0  0  0  0  0  0  0  0  0  0
    8.2580    6.6560   18.5470 C   0  0  0  0  0  0  0  0  0  0  0  0
    8.0090    5.2860   18.4370 C   0  0  0  0  0  0  0  0  0  0  0  0
    7.0370    4.8150   17.5540 C   0  0  0  0  0  0  0  0  0  0  0  0
    6.0070    7.7920   16.2760 H   0  0  0  0  0  0  0  0  0  0  0  0
    9.0190    6.9810   19.2510 H   0  0  0  0  0  0  0  0  0  0  0  0
    8.5770    4.5850   19.0440 H   0  0  0  0  0  0  0  0  0  0  0  0
    6.8650    3.7440   17.4840 H   0  0  0  0  0  0  0  0  0  0  0  0
    5.2670    5.1630   15.7850 C   0  0  1  0  0  0  0  0  0  0  0  0
    4.6850    6.0150   15.4040 H   0  0  0  0  0  0  0  0  0  0  0  0
    5.9360    4.5100   14.5650 C   0  0  0  0  0  0  0  0  0  0  0  0
    6.9160    4.9630   14.3670 H   0  0  0  0  0  0  0  0  0  0  0  0
    6.0870    3.4340   14.7050 H   0  0  0  0  0  0  0  0  0  0  0  0
    5.3290    4.6370   13.6630 H   0  0  0  0  0  0  0  0  0  0  0  0
    4.3150    4.1960   16.5220 C   0  0  0  0  0  0  0  0  0  0  0  0
    3.5380    3.8400   15.8330 H   0  0  0  0  0  0  0  0  0  0  0  0
    4.8770    3.3100   16.8470 H   0  0  0  0  0  0  0  0  0  0  0  0
    3.6700    4.7870   17.7320 C   0  0  0  0  0  0  0  0  0  0  0  0
    3.0560    5.9490   17.8330 N   0  0  0  0  0  0  0  0  0  0  0  0
    2.6180    6.0960   19.1280 N   0  0  0  0  0  0  0  0  0  0  0  0
    2.9840    5.0270   19.7940 C   0  0  0  0  0  0  0  0  0  0  0  0
    3.6480    4.1820   18.9630 N   0  0  0  0  0  0  0  0  0  0  0  0
    2.7960    4.8340   20.8410 H   0  0  0  0  0  0  0  0  0  0  0  0
    4.2180    2.9110   19.3220 C   0  0  0  0  0  0  0  0  0  0  0  0
    5.2760    2.9150   19.0450 H   0  0  0  0  0  0  0  0  0  0  0  0
    4.1020    2.7650   20.3990 H   0  0  0  0  0  0  0  0  0  0  0  0
    3.6990    2.1120   18.7860 H   0  0  0  0  0  0  0  0  0  0  0  0
    8.4850   11.1580   18.4230 C   0  0  0  0  0  0  0  0  0  0  0  0
    7.9920   11.5730   17.2190 N   0  0  0  0  0  0  0  0  0  0  0  0
    7.8690   12.9070   17.0400 C   0  0  0  0  0  0  0  0  0  0  0  0
    8.1970   13.8410   18.0040 C   0  0  0  0  0  0  0  0  0  0  0  0
    8.6740   13.3770   19.2290 C   0  0  0  0  0  0  0  0  0  0  0  0
    8.8500   12.0160   19.4470 C   0  0  0  0  0  0  0  0  0  0  0  0
    7.4900   13.2150   16.0700 H   0  0  0  0  0  0  0  0  0  0  0  0
    8.0940   14.9040   17.8080 H   0  0  0  0  0  0  0  0  0  0  0  0
    9.2730   11.6350   20.3700 H   0  0  0  0  0  0  0  0  0  0  0  0
    9.0690   14.3660   20.2500 C   0  0  0  0  0  0  0  0  0  0  0  0
    9.8530   15.2490   19.9090 O   0  0  0  0  0  0  0  0  0  0  0  0
    8.5220   14.2790   21.5180 N   0  0  0  0  0  0  0  0  0  0  0  0
    8.8860   15.2670   22.5240 C   0  0  0  0  0  0  0  0  0  0  0  0
    7.7490   15.2280   23.5290 C   0  0  0  0  0  0  0  0  0  0  0  0
    7.2950   13.7830   23.4250 C   0  0  2  0  0  0  0  0  0  0  0  0
    7.4140   13.4260   21.9470 C   0  0  0  0  0  0  0  0  0  0  0  0
    5.9810   13.3770   24.1040 C   0  0  0  0  0  0  0  0  0  0  0  0
    6.5850   12.1580   24.6070 O   0  0  0  0  0  0  0  0  0  0  0  0
    7.9130   12.7010   24.3520 C   0  0  2  0  0  0  0  0  0  0  0  0
    8.7290   13.1560   25.8790 Cl  0  0  0  0  0  0  0  0  0  0  0  0
    9.0260   16.2610   22.0880 H   0  0  0  0  0  0  0  0  0  0  0  0
    9.8290   14.9400   22.9760 H   0  0  0  0  0  0  0  0  0  0  0  0
    6.9440   15.8960   23.1970 H   0  0  0  0  0  0  0  0  0  0  0  0
    8.0550   15.5490   24.5270 H   0  0  0  0  0  0  0  0  0  0  0  0
    6.5270   13.7270   21.3790 H   0  0  0  0  0  0  0  0  0  0  0  0
    7.6200   12.3700   21.7620 H   0  0  0  0  0  0  0  0  0  0  0  0
    5.1390   13.1700   23.4360 H   0  0  0  0  0  0  0  0  0  0  0  0
    5.6450   14.0160   24.9270 H   0  0  0  0  0  0  0  0  0  0  0  0
    8.5450   11.9610   23.8490 H   0  0  0  0  0  0  0  0  0  0  0  0
  1  2  1  0  0  0  0
  2  3  2  0  0  0  0
  4  1  1  0  0  0  0
  5  6  2  0  0  0  0
  5 10  1  0  0  0  0
  6  7  1  0  0  0  0
  7  1  1  0  0  0  0
  7  8  2  0  0  0  0
  8 12  1  0  0  0  0
  9  8  1  0  0  0  0
  9 13  1  0  0  0  0
 10  9  2  0  0  0  0
 11  6  1  0  0  0  0
 14 10  1  0  0  0  0
 15 16  1  6  0  0  0
 15 21  1  0  0  0  0
 15  5  1  0  0  0  0
 17 19  1  0  0  0  0
 17 15  1  0  0  0  0
 18 17  1  0  0  0  0
 20 17  1  0  0  0  0
 21 23  1  0  0  0  0
 21 24  1  0  0  0  0
 22 21  1  0  0  0  0
 24 25  2  0  0  0  0
 24 28  1  0  0  0  0
 25 26  1  0  0  0  0
 26 27  2  0  0  0  0
 27 29  1  0  0  0  0
 28 30  1  0  0  0  0
 28 27  1  0  0  0  0
 30 32  1  0  0  0  0
 31 30  1  0  0  0  0
 33 30  1  0  0  0  0
 34  2  1  0  0  0  0
 34 39  1  0  0  0  0
 35 34  2  0  0  0  0
 36 35  1  0  0  0  0
 36 37  2  0  0  0  0
 37 38  1  0  0  0  0
 38 39  2  0  0  0  0
 38 43  1  0  0  0  0
 39 42  1  0  0  0  0
 40 36  1  0  0  0  0
 41 37  1  0  0  0  0
 43 45  1  0  0  0  0
 44 43  2  0  0  0  0
 45 49  1  0  0  0  0
 45 46  1  0  0  0  0
 46 55  1  0  0  0  0
 46 47  1  0  0  0  0
 47 57  1  0  0  0  0
 48 49  1  6  0  0  0
 48 47  1  0  0  0  0
 48 50  1  0  0  0  0
 48 52  1  0  0  0  0
 50 51  1  0  0  0  0
 50 61  1  0  0  0  0
 52 62  1  6  0  0  0
 52 51  1  0  0  0  0
 52 53  1  0  0  0  0
 54 46  1  0  0  0  0
 56 47  1  0  0  0  0
 58 49  1  0  0  0  0
 59 49  1  0  0  0  0
 60 50  1  0  0  0  0
M  END
>  <MODEL>
19

>  <REMARK>
 VINA RESULT:    -7.409      5.100      7.179
 INTER + INTRA:         -10.082
 INTER:                  -9.676
 INTRA:                  -0.406
 UNBOUND:                 0.359
  Name = 
  8 active torsions:
  status: ('A' for Active; 'I' for Inactive)
    1  A    between atoms: C_1  and  C_2
    2  A    between atoms: C_2  and  C_3
    3  A    between atoms: C_2  and  C_10
    4  A    between atoms: C_3  and  C_4
    5  A    between atoms: N_8  and  C_9
    6  A    between atoms: C_12  and  N_16
    7  A    between atoms: C_17  and  C_19
    8  A    between atoms: C_23  and  C_25
                            x       y       z     vdW  Elec       q    Type
                         _______ _______ _______ _____ _____    ______ ____

>  <TORSDO>
F 8

$$$$
=
 OpenBabel07192307433D

 62 66  0  0  1  0  0  0  0  0999 V2000
    0.3590    7.6360   20.9990 N   0  0  0  0  0  0  0  0  0  0  0  0
    1.4910    7.3250   20.2700 C   0  0  0  0  0  0  0  0  0  0  0  0
    2.3430    8.0970   19.8460 O   0  0  0  0  0  0  0  0  0  0  0  0
   -0.2080    6.8270   21.2480 H   0  0  0  0  0  0  0  0  0  0  0  0
   -0.7770   11.1510   20.7160 C   0  0  0  0  0  0  0  0  0  0  0  0
   -0.3360    9.8510   20.4050 C   0  0  0  0  0  0  0  0  0  0  0  0
   -0.0960    8.9020   21.4080 C   0  0  0  0  0  0  0  0  0  0  0  0
   -0.3120    9.2550   22.7400 C   0  0  0  0  0  0  0  0  0  0  0  0
   -0.7550   10.5390   23.0660 C   0  0  0  0  0  0  0  0  0  0  0  0
   -0.9870   11.4790   22.0620 C   0  0  0  0  0  0  0  0  0  0  0  0
   -0.1800    9.5760   19.3650 H   0  0  0  0  0  0  0  0  0  0  0  0
   -0.1380    8.5540   23.5520 H   0  0  0  0  0  0  0  0  0  0  0  0
   -0.9180   10.8030   24.1080 H   0  0  0  0  0  0  0  0  0  0  0  0
   -1.3350   12.4720   22.3420 H   0  0  0  0  0  0  0  0  0  0  0  0
   -1.0750   12.1880   19.6390 C   0  0  1  0  0  0  0  0  0  0  0  0
   -1.9240   12.7940   19.9850 H   0  0  0  0  0  0  0  0  0  0  0  0
    0.1020   13.1570   19.4410 C   0  0  0  0  0  0  0  0  0  0  0  0
    0.7900   12.7830   18.6710 H   0  0  0  0  0  0  0  0  0  0  0  0
   -0.2330   14.1530   19.1340 H   0  0  0  0  0  0  0  0  0  0  0  0
    0.6770   13.2770   20.3630 H   0  0  0  0  0  0  0  0  0  0  0  0
   -1.4720   11.4700   18.3310 C   0  0  0  0  0  0  0  0  0  0  0  0
   -0.9020   11.8850   17.4890 H   0  0  0  0  0  0  0  0  0  0  0  0
   -1.2000   10.4090   18.4010 H   0  0  0  0  0  0  0  0  0  0  0  0
   -2.9310   11.5390   18.0210 C   0  0  0  0  0  0  0  0  0  0  0  0
   -3.9130   11.8700   18.8350 N   0  0  0  0  0  0  0  0  0  0  0  0
   -5.0970   11.7950   18.1390 N   0  0  0  0  0  0  0  0  0  0  0  0
   -4.8140   11.4090   16.9180 C   0  0  0  0  0  0  0  0  0  0  0  0
   -3.4720   11.2330   16.7990 N   0  0  0  0  0  0  0  0  0  0  0  0
   -5.5260   11.2490   16.1190 H   0  0  0  0  0  0  0  0  0  0  0  0
   -2.7740   10.8010   15.6180 C   0  0  0  0  0  0  0  0  0  0  0  0
   -2.0130   11.5470   15.3720 H   0  0  0  0  0  0  0  0  0  0  0  0
   -2.3120    9.8310   15.8170 H   0  0  0  0  0  0  0  0  0  0  0  0
   -3.4800   10.7080   14.7880 H   0  0  0  0  0  0  0  0  0  0  0  0
    1.6220    5.8560   19.9970 C   0  0  0  0  0  0  0  0  0  0  0  0
    0.8720    5.0290   20.7830 N   0  0  0  0  0  0  0  0  0  0  0  0
    0.9790    3.7030   20.5460 C   0  0  0  0  0  0  0  0  0  0  0  0
    1.7810    3.1660   19.5570 C   0  0  0  0  0  0  0  0  0  0  0  0
    2.5130    4.0440   18.7590 C   0  0  0  0  0  0  0  0  0  0  0  0
    2.4620    5.4140   18.9890 C   0  0  0  0  0  0  0  0  0  0  0  0
    0.3850    3.0630   21.1920 H   0  0  0  0  0  0  0  0  0  0  0  0
    1.8450    2.0910   19.4130 H   0  0  0  0  0  0  0  0  0  0  0  0
    3.0660    6.1110   18.4190 H   0  0  0  0  0  0  0  0  0  0  0  0
    3.4070    3.4800   17.7300 C   0  0  0  0  0  0  0  0  0  0  0  0
    2.9860    2.5320   17.0720 O   0  0  0  0  0  0  0  0  0  0  0  0
    4.6490    4.0570   17.5290 N   0  0  0  0  0  0  0  0  0  0  0  0
    5.5270    3.5230   16.4970 C   0  0  0  0  0  0  0  0  0  0  0  0
    6.4760    4.6630   16.1730 C   0  0  0  0  0  0  0  0  0  0  0  0
    6.5480    5.3910   17.5030 C   0  0  2  0  0  0  0  0  0  0  0  0
    5.1390    5.3180   18.0830 C   0  0  0  0  0  0  0  0  0  0  0  0
    7.2150    6.7720   17.5480 C   0  0  0  0  0  0  0  0  0  0  0  0
    7.9060    6.4300   18.7760 O   0  0  0  0  0  0  0  0  0  0  0  0
    7.6410    5.0170   18.5410 C   0  0  2  0  0  0  0  0  0  0  0  0
    9.1270    4.1540   18.0400 Cl  0  0  0  0  0  0  0  0  0  0  0  0
    4.9670    3.1810   15.6210 H   0  0  0  0  0  0  0  0  0  0  0  0
    6.0620    2.6710   16.9320 H   0  0  0  0  0  0  0  0  0  0  0  0
    6.0190    5.3150   15.4160 H   0  0  0  0  0  0  0  0  0  0  0  0
    7.4330    4.3180   15.7790 H   0  0  0  0  0  0  0  0  0  0  0  0
    4.4950    6.1180   17.7000 H   0  0  0  0  0  0  0  0  0  0  0  0
    5.1090    5.3220   19.1740 H   0  0  0  0  0  0  0  0  0  0  0  0
    6.5430    7.6260   17.6810 H   0  0  0  0  0  0  0  0  0  0  0  0
    7.9270    6.9900   16.7450 H   0  0  0  0  0  0  0  0  0  0  0  0
    7.2720    4.5330   19.4530 H   0  0  0  0  0  0  0  0  0  0  0  0
  1  4  1  0  0  0  0
  1  7  1  0  0  0  0
  2  1  1  0  0  0  0
  3  2  2  0  0  0  0
  5 10  1  0  0  0  0
  6  5  2  0  0  0  0
  6  7  1  0  0  0  0
  7  8  2  0  0  0  0
  8  9  1  0  0  0  0
  8 12  1  0  0  0  0
  9 13  1  0  0  0  0
 10 14  1  0  0  0  0
 10  9  2  0  0  0  0
 11  6  1  0  0  0  0
 15 16  1  1  0  0  0
 15  5  1  0  0  0  0
 17 15  1  0  0  0  0
 17 20  1  0  0  0  0
 18 17  1  0  0  0  0
 19 17  1  0  0  0  0
 21 23  1  0  0  0  0
 21 15  1  0  0  0  0
 22 21  1  0  0  0  0
 24 21  1  0  0  0  0
 24 25  2  0  0  0  0
 26 25  1  0  0  0  0
 27 26  2  0  0  0  0
 28 27  1  0  0  0  0
 28 24  1  0  0  0  0
 29 27  1  0  0  0  0
 30 32  1  0  0  0  0
 30 28  1  0  0  0  0
 31 30  1  0  0  0  0
 33 30  1  0  0  0  0
 34  2  1  0  0  0  0
 34 35  1  0  0  0  0
 36 35  2  0  0  0  0
 36 40  1  0  0  0  0
 37 36  1  0  0  0  0
 38 39  1  0  0  0  0
 38 37  2  0  0  0  0
 39 34  2  0  0  0  0
 41 37  1  0  0  0  0
 42 39  1  0  0  0  0
 43 38  1  0  0  0  0
 44 43  2  0  0  0  0
 45 43  1  0  0  0  0
 45 49  1  0  0  0  0
 46 55  1  0  0  0  0
 46 45  1  0  0  0  0
 47 46  1  0  0  0  0
 48 47  1  6  0  0  0
 48 50  1  0  0  0  0
 48 49  1  0  0  0  0
 48 52  1  0  0  0  0
 49 59  1  0  0  0  0
 50 60  1  0  0  0  0
 50 51  1  0  0  0  0
 52 51  1  0  0  0  0
 52 62  1  1  0  0  0
 53 52  1  0  0  0  0
 54 46  1  0  0  0  0
 56 47  1  0  0  0  0
 57 47  1  0  0  0  0
 58 49  1  0  0  0  0
 61 50  1  0  0  0  0
M  END
>  <MODEL>
20

>  <REMARK>
 VINA RESULT:    -7.333      3.393      9.315
 INTER + INTRA:          -9.975
 INTER:                  -9.720
 INTRA:                  -0.255
 UNBOUND:                 0.359
  Name = 
  8 active torsions:
  status: ('A' for Active; 'I' for Inactive)
    1  A    between atoms: C_1  and  C_2
    2  A    between atoms: C_2  and  C_3
    3  A    between atoms: C_2  and  C_10
    4  A    between atoms: C_3  and  C_4
    5  A    between atoms: N_8  and  C_9
    6  A    between atoms: C_12  and  N_16
    7  A    between atoms: C_17  and  C_19
    8  A    between atoms: C_23  and  C_25
                            x       y       z     vdW  Elec       q    Type
                         _______ _______ _______ _____ _____    ______ ____

>  <TORSDO>
F 8

$$$$
=
 OpenBabel07192307433D

 62 66  0  0  1  0  0  0  0  0999 V2000
    1.0360    8.2540   21.0270 N   0  0  0  0  0  0  0  0  0  0  0  0
    1.6400    8.0180   19.8070 C   0  0  0  0  0  0  0  0  0  0  0  0
    1.6280    8.7350   18.8150 O   0  0  0  0  0  0  0  0  0  0  0  0
    1.1830    7.5150   21.7120 H   0  0  0  0  0  0  0  0  0  0  0  0
   -0.8190   11.4460   20.7210 C   0  0  0  0  0  0  0  0  0  0  0  0
   -0.0540   10.3030   20.4270 C   0  0  0  0  0  0  0  0  0  0  0  0
    0.2520    9.3550   21.4140 C   0  0  0  0  0  0  0  0  0  0  0  0
   -0.2270    9.5480   22.7100 C   0  0  0  0  0  0  0  0  0  0  0  0
   -0.9930   10.6760   23.0170 C   0  0  0  0  0  0  0  0  0  0  0  0
   -1.2880   11.6170   22.0310 C   0  0  0  0  0  0  0  0  0  0  0  0
    0.3080   10.1480   19.4130 H   0  0  0  0  0  0  0  0  0  0  0  0
   -0.0150    8.8430   23.5090 H   0  0  0  0  0  0  0  0  0  0  0  0
   -1.3590   10.8170   24.0310 H   0  0  0  0  0  0  0  0  0  0  0  0
   -1.8880   12.4840   22.2940 H   0  0  0  0  0  0  0  0  0  0  0  0
   -1.1880   12.4730   19.6560 C   0  0  1  0  0  0  0  0  0  0  0  0
   -2.0980   12.9900   19.9920 H   0  0  0  0  0  0  0  0  0  0  0  0
   -0.1030   13.5510   19.5040 C   0  0  0  0  0  0  0  0  0  0  0  0
    0.3620   13.4990   18.5110 H   0  0  0  0  0  0  0  0  0  0  0  0
   -0.5060   14.5610   19.6320 H   0  0  0  0  0  0  0  0  0  0  0  0
    0.6920   13.4220   20.2440 H   0  0  0  0  0  0  0  0  0  0  0  0
   -1.4870   11.7480   18.3260 C   0  0  0  0  0  0  0  0  0  0  0  0
   -0.9990   12.2740   17.4950 H   0  0  0  0  0  0  0  0  0  0  0  0
   -1.0530   10.7390   18.3560 H   0  0  0  0  0  0  0  0  0  0  0  0
   -2.9430   11.6010   18.0300 C   0  0  0  0  0  0  0  0  0  0  0  0
   -3.9590   11.8800   18.8220 N   0  0  0  0  0  0  0  0  0  0  0  0
   -5.1240   11.5900   18.1510 N   0  0  0  0  0  0  0  0  0  0  0  0
   -4.7950   11.1280   16.9680 C   0  0  0  0  0  0  0  0  0  0  0  0
   -3.4420   11.1140   16.8490 N   0  0  0  0  0  0  0  0  0  0  0  0
   -5.4810   10.8030   16.1980 H   0  0  0  0  0  0  0  0  0  0  0  0
   -2.6940   10.6630   15.7050 C   0  0  0  0  0  0  0  0  0  0  0  0
   -1.7020   10.3510   16.0400 H   0  0  0  0  0  0  0  0  0  0  0  0
   -3.2270    9.8270   15.2430 H   0  0  0  0  0  0  0  0  0  0  0  0
   -2.6000   11.4810   14.9840 H   0  0  0  0  0  0  0  0  0  0  0  0
    2.3710    6.7080   19.7640 C   0  0  0  0  0  0  0  0  0  0  0  0
    1.6500    5.6050   20.1190 N   0  0  0  0  0  0  0  0  0  0  0  0
    2.2950    4.4180   20.0810 C   0  0  0  0  0  0  0  0  0  0  0  0
    3.6140    4.2780   19.6920 C   0  0  0  0  0  0  0  0  0  0  0  0
    4.3100    5.4250   19.3140 C   0  0  0  0  0  0  0  0  0  0  0  0
    3.6980    6.6720   19.3700 C   0  0  0  0  0  0  0  0  0  0  0  0
    1.7070    3.5560   20.3820 H   0  0  0  0  0  0  0  0  0  0  0  0
    4.0950    3.3040   19.6910 H   0  0  0  0  0  0  0  0  0  0  0  0
    4.2360    7.5830   19.1350 H   0  0  0  0  0  0  0  0  0  0  0  0
    5.7310    5.2930   18.9400 C   0  0  0  0  0  0  0  0  0  0  0  0
    6.5690    5.5200   19.8090 O   0  0  0  0  0  0  0  0  0  0  0  0
    6.0530    4.8930   17.6540 N   0  0  0  0  0  0  0  0  0  0  0  0
    7.4530    4.7350   17.2840 C   0  0  0  0  0  0  0  0  0  0  0  0
    7.4310    3.7940   16.0930 C   0  0  0  0  0  0  0  0  0  0  0  0
    6.0890    4.1250   15.4640 C   0  0  2  0  0  0  0  0  0  0  0  0
    5.1430    4.3740   16.6350 C   0  0  0  0  0  0  0  0  0  0  0  0
    5.5530    3.2080   14.3580 C   0  0  0  0  0  0  0  0  0  0  0  0
    5.1330    4.3530   13.5730 O   0  0  0  0  0  0  0  0  0  0  0  0
    5.9880    5.2230   14.3710 C   0  0  2  0  0  0  0  0  0  0  0  0
    7.4320    5.7350   13.4460 Cl  0  0  0  0  0  0  0  0  0  0  0  0
    8.0530    4.3470   18.1140 H   0  0  0  0  0  0  0  0  0  0  0  0
    7.8300    5.7250   17.0040 H   0  0  0  0  0  0  0  0  0  0  0  0
    7.4310    2.7550   16.4470 H   0  0  0  0  0  0  0  0  0  0  0  0
    8.2960    3.9200   15.4380 H   0  0  0  0  0  0  0  0  0  0  0  0
    4.7140    3.4420   17.0200 H   0  0  0  0  0  0  0  0  0  0  0  0
    4.3390    5.0770   16.4120 H   0  0  0  0  0  0  0  0  0  0  0  0
    4.7070    2.5690   14.6320 H   0  0  0  0  0  0  0  0  0  0  0  0
    6.2980    2.6150   13.8180 H   0  0  0  0  0  0  0  0  0  0  0  0
    5.4500    6.1300   14.6690 H   0  0  0  0  0  0  0  0  0  0  0  0
  1  7  1  0  0  0  0
  1  4  1  0  0  0  0
  2  1  1  0  0  0  0
  3  2  2  0  0  0  0
  5 10  1  0  0  0  0
  6  5  2  0  0  0  0
  6  7  1  0  0  0  0
  7  8  2  0  0  0  0
  8  9  1  0  0  0  0
  8 12  1  0  0  0  0
  9 13  1  0  0  0  0
 10 14  1  0  0  0  0
 10  9  2  0  0  0  0
 11  6  1  0  0  0  0
 15 16  1  1  0  0  0
 15  5  1  0  0  0  0
 17 19  1  0  0  0  0
 17 15  1  0  0  0  0
 17 20  1  0  0  0  0
 18 17  1  0  0  0  0
 21 23  1  0  0  0  0
 21 15  1  0  0  0  0
 22 21  1  0  0  0  0
 24 21  1  0  0  0  0
 24 25  2  0  0  0  0
 26 25  1  0  0  0  0
 27 26  2  0  0  0  0
 28 27  1  0  0  0  0
 28 24  1  0  0  0  0
 29 27  1  0  0  0  0
 30 31  1  0  0  0  0
 30 28  1  0  0  0  0
 32 30  1  0  0  0  0
 33 30  1  0  0  0  0
 34  2  1  0  0  0  0
 34 35  1  0  0  0  0
 36 35  2  0  0  0  0
 36 40  1  0  0  0  0
 37 36  1  0  0  0  0
 38 39  1  0  0  0  0
 38 37  2  0  0  0  0
 39 34  2  0  0  0  0
 41 37  1  0  0  0  0
 42 39  1  0  0  0  0
 43 38  1  0  0  0  0
 43 44  2  0  0  0  0
 45 43  1  0  0  0  0
 46 45  1  0  0  0  0
 46 54  1  0  0  0  0
 47 56  1  0  0  0  0
 47 46  1  0  0  0  0
 48 50  1  6  0  0  0
 48 47  1  0  0  0  0
 48 49  1  0  0  0  0
 49 58  1  0  0  0  0
 49 45  1  0  0  0  0
 50 60  1  0  0  0  0
 51 50  1  0  0  0  0
 51 52  1  0  0  0  0
 52 62  1  1  0  0  0
 52 48  1  0  0  0  0
 53 52  1  0  0  0  0
 55 46  1  0  0  0  0
 57 47  1  0  0  0  0
 59 49  1  0  0  0  0
 61 50  1  0  0  0  0
M  END
>  <MODEL>
21

>  <REMARK>
 VINA RESULT:    -7.238      3.309      9.623
 INTER + INTRA:          -9.841
 INTER:                  -9.410
 INTRA:                  -0.432
 UNBOUND:                 0.359
  Name = 
  8 active torsions:
  status: ('A' for Active; 'I' for Inactive)
    1  A    between atoms: C_1  and  C_2
    2  A    between atoms: C_2  and  C_3
    3  A    between atoms: C_2  and  C_10
    4  A    between atoms: C_3  and  C_4
    5  A    between atoms: N_8  and  C_9
    6  A    between atoms: C_12  and  N_16
    7  A    between atoms: C_17  and  C_19
    8  A    between atoms: C_23  and  C_25
                            x       y       z     vdW  Elec       q    Type
                         _______ _______ _______ _____ _____    ______ ____

>  <TORSDO>
F 8

$$$$
=
 OpenBabel07192307433D

 62 66  0  0  1  0  0  0  0  0999 V2000
    1.3400    9.1080   19.0820 N   0  0  0  0  0  0  0  0  0  0  0  0
    1.5110    8.3970   20.2540 C   0  0  0  0  0  0  0  0  0  0  0  0
    1.5700    8.8380   21.3950 O   0  0  0  0  0  0  0  0  0  0  0  0
    1.3180    8.5280   18.2450 H   0  0  0  0  0  0  0  0  0  0  0  0
   -0.1890   12.4780   19.2410 C   0  0  0  0  0  0  0  0  0  0  0  0
    0.0350   11.0960   19.3790 C   0  0  0  0  0  0  0  0  0  0  0  0
    1.2160   10.4980   18.9140 C   0  0  0  0  0  0  0  0  0  0  0  0
    2.1900   11.2980   18.3160 C   0  0  0  0  0  0  0  0  0  0  0  0
    1.9860   12.6730   18.1780 C   0  0  0  0  0  0  0  0  0  0  0  0
    0.8070   13.2590   18.6370 C   0  0  0  0  0  0  0  0  0  0  0  0
   -0.7210   10.4780   19.8560 H   0  0  0  0  0  0  0  0  0  0  0  0
    3.1200   10.8800   17.9400 H   0  0  0  0  0  0  0  0  0  0  0  0
    2.7520   13.2850   17.7080 H   0  0  0  0  0  0  0  0  0  0  0  0
    0.6730   14.3320   18.5200 H   0  0  0  0  0  0  0  0  0  0  0  0
   -1.4510   13.1530   19.7670 C   0  0  1  0  0  0  0  0  0  0  0  0
   -1.6650   14.0130   19.1160 H   0  0  0  0  0  0  0  0  0  0  0  0
   -2.6710   12.2240   19.6810 C   0  0  0  0  0  0  0  0  0  0  0  0
   -3.5110   12.6270   20.2610 H   0  0  0  0  0  0  0  0  0  0  0  0
   -3.0130   12.0870   18.6490 H   0  0  0  0  0  0  0  0  0  0  0  0
   -2.4450   11.2310   20.0810 H   0  0  0  0  0  0  0  0  0  0  0  0
   -1.2000   13.6630   21.2030 C   0  0  0  0  0  0  0  0  0  0  0  0
   -0.2340   13.2910   21.5680 H   0  0  0  0  0  0  0  0  0  0  0  0
   -1.1320   14.7590   21.1930 H   0  0  0  0  0  0  0  0  0  0  0  0
   -2.2720   13.2900   22.1740 C   0  0  0  0  0  0  0  0  0  0  0  0
   -3.3770   13.9530   22.4490 N   0  0  0  0  0  0  0  0  0  0  0  0
   -4.0740   13.2540   23.4060 N   0  0  0  0  0  0  0  0  0  0  0  0
   -3.3750   12.1860   23.7050 C   0  0  0  0  0  0  0  0  0  0  0  0
   -2.2380   12.1670   22.9610 N   0  0  0  0  0  0  0  0  0  0  0  0
   -3.6450   11.4280   24.4280 H   0  0  0  0  0  0  0  0  0  0  0  0
   -1.2070   11.1650   23.0090 C   0  0  0  0  0  0  0  0  0  0  0  0
   -0.4270   11.4350   22.2920 H   0  0  0  0  0  0  0  0  0  0  0  0
   -0.8020   11.1260   24.0240 H   0  0  0  0  0  0  0  0  0  0  0  0
   -1.6300   10.1920   22.7450 H   0  0  0  0  0  0  0  0  0  0  0  0
    1.6380    6.9200   20.0250 C   0  0  0  0  0  0  0  0  0  0  0  0
    1.0060    6.1150   20.9290 N   0  0  0  0  0  0  0  0  0  0  0  0
    1.1100    4.7820   20.7320 C   0  0  0  0  0  0  0  0  0  0  0  0
    1.7970    4.2160   19.6750 C   0  0  0  0  0  0  0  0  0  0  0  0
    2.4090    5.0720   18.7600 C   0  0  0  0  0  0  0  0  0  0  0  0
    2.3590    6.4490   18.9410 C   0  0  0  0  0  0  0  0  0  0  0  0
    0.6130    4.1590   21.4710 H   0  0  0  0  0  0  0  0  0  0  0  0
    1.8660    3.1380   19.5670 H   0  0  0  0  0  0  0  0  0  0  0  0
    2.8750    7.1320   18.2740 H   0  0  0  0  0  0  0  0  0  0  0  0
    3.1830    4.4790   17.6530 C   0  0  0  0  0  0  0  0  0  0  0  0
    2.6000    3.6920   16.9120 O   0  0  0  0  0  0  0  0  0  0  0  0
    4.5040    4.8570   17.4780 N   0  0  0  0  0  0  0  0  0  0  0  0
    5.2680    4.2970   16.3720 C   0  0  0  0  0  0  0  0  0  0  0  0
    6.3930    5.2900   16.1410 C   0  0  0  0  0  0  0  0  0  0  0  0
    6.6020    5.8480   17.5380 C   0  0  2  0  0  0  0  0  0  0  0  0
    5.2070    5.9510   18.1460 C   0  0  0  0  0  0  0  0  0  0  0  0
    7.4950    7.0840   17.7070 C   0  0  0  0  0  0  0  0  0  0  0  0
    8.1300    6.5000   18.8720 O   0  0  0  0  0  0  0  0  0  0  0  0
    7.6250    5.1850   18.5000 C   0  0  2  0  0  0  0  0  0  0  0  0
    8.9380    4.1440   17.8690 Cl  0  0  0  0  0  0  0  0  0  0  0  0
    4.6480    4.1510   15.4810 H   0  0  0  0  0  0  0  0  0  0  0  0
    5.6540    3.3260   16.7000 H   0  0  0  0  0  0  0  0  0  0  0  0
    6.0460    6.0860   15.4700 H   0  0  0  0  0  0  0  0  0  0  0  0
    7.2740    4.8330   15.6860 H   0  0  0  0  0  0  0  0  0  0  0  0
    4.7050    6.8850   17.8670 H   0  0  0  0  0  0  0  0  0  0  0  0
    5.1890    5.8420   19.2320 H   0  0  0  0  0  0  0  0  0  0  0  0
    6.9800    8.0200   17.9480 H   0  0  0  0  0  0  0  0  0  0  0  0
    8.2260    7.2640   16.9120 H   0  0  0  0  0  0  0  0  0  0  0  0
    7.1890    4.6760   19.3660 H   0  0  0  0  0  0  0  0  0  0  0  0
  1  2  1  0  0  0  0
  2  3  2  0  0  0  0
  4  1  1  0  0  0  0
  5  6  1  0  0  0  0
  5 15  1  0  0  0  0
  6 11  1  0  0  0  0
  7  1  1  0  0  0  0
  7  6  2  0  0  0  0
  8  7  1  0  0  0  0
  9  8  2  0  0  0  0
  9 10  1  0  0  0  0
 10  5  2  0  0  0  0
 12  8  1  0  0  0  0
 13  9  1  0  0  0  0
 14 10  1  0  0  0  0
 15 16  1  6  0  0  0
 15 21  1  0  0  0  0
 17 15  1  0  0  0  0
 17 20  1  0  0  0  0
 17 18  1  0  0  0  0
 19 17  1  0  0  0  0
 21 22  1  0  0  0  0
 21 24  1  0  0  0  0
 23 21  1  0  0  0  0
 24 25  2  0  0  0  0
 24 28  1  0  0  0  0
 25 26  1  0  0  0  0
 26 27  2  0  0  0  0
 27 29  1  0  0  0  0
 28 30  1  0  0  0  0
 28 27  1  0  0  0  0
 30 32  1  0  0  0  0
 31 30  1  0  0  0  0
 33 30  1  0  0  0  0
 34  2  1  0  0  0  0
 34 35  1  0  0  0  0
 36 35  2  0  0  0  0
 36 40  1  0  0  0  0
 37 36  1  0  0  0  0
 38 39  1  0  0  0  0
 38 37  2  0  0  0  0
 39 34  2  0  0  0  0
 41 37  1  0  0  0  0
 42 39  1  0  0  0  0
 43 38  1  0  0  0  0
 44 43  2  0  0  0  0
 45 43  1  0  0  0  0
 45 49  1  0  0  0  0
 46 55  1  0  0  0  0
 46 45  1  0  0  0  0
 47 46  1  0  0  0  0
 48 47  1  6  0  0  0
 48 50  1  0  0  0  0
 48 49  1  0  0  0  0
 48 52  1  0  0  0  0
 49 59  1  0  0  0  0
 50 60  1  0  0  0  0
 50 51  1  0  0  0  0
 52 51  1  0  0  0  0
 52 62  1  1  0  0  0
 53 52  1  0  0  0  0
 54 46  1  0  0  0  0
 56 47  1  0  0  0  0
 57 47  1  0  0  0  0
 58 49  1  0  0  0  0
 61 50  1  0  0  0  0
M  END
>  <MODEL>
22

>  <REMARK>
 VINA RESULT:    -7.185      3.321      9.735
 INTER + INTRA:          -9.767
 INTER:                  -9.160
 INTRA:                  -0.607
 UNBOUND:                 0.359
  Name = 
  8 active torsions:
  status: ('A' for Active; 'I' for Inactive)
    1  A    between atoms: C_1  and  C_2
    2  A    between atoms: C_2  and  C_3
    3  A    between atoms: C_2  and  C_10
    4  A    between atoms: C_3  and  C_4
    5  A    between atoms: N_8  and  C_9
    6  A    between atoms: C_12  and  N_16
    7  A    between atoms: C_17  and  C_19
    8  A    between atoms: C_23  and  C_25
                            x       y       z     vdW  Elec       q    Type
                         _______ _______ _______ _____ _____    ______ ____

>  <TORSDO>
F 8

$$$$
=
 OpenBabel07192307433D

 62 66  0  0  1  0  0  0  0  0999 V2000
    3.4530    8.0110   17.8580 N   0  0  0  0  0  0  0  0  0  0  0  0
    2.0990    8.2870   17.8660 C   0  0  0  0  0  0  0  0  0  0  0  0
    1.1990    7.6310   17.3570 O   0  0  0  0  0  0  0  0  0  0  0  0
    4.0180    8.7000   18.3510 H   0  0  0  0  0  0  0  0  0  0  0  0
    4.8380    4.5990   17.4580 C   0  0  0  0  0  0  0  0  0  0  0  0
    4.1780    5.7300   17.9730 C   0  0  0  0  0  0  0  0  0  0  0  0
    4.1200    6.9320   17.2530 C   0  0  0  0  0  0  0  0  0  0  0  0
    4.7210    6.9980   15.9960 C   0  0  0  0  0  0  0  0  0  0  0  0
    5.3750    5.8830   15.4680 C   0  0  0  0  0  0  0  0  0  0  0  0
    5.4330    4.6920   16.1920 C   0  0  0  0  0  0  0  0  0  0  0  0
    3.7010    5.6710   18.9480 H   0  0  0  0  0  0  0  0  0  0  0  0
    4.7040    7.9080   15.4020 H   0  0  0  0  0  0  0  0  0  0  0  0
    5.8410    5.9470   14.4880 H   0  0  0  0  0  0  0  0  0  0  0  0
    5.9460    3.8370   15.7580 H   0  0  0  0  0  0  0  0  0  0  0  0
    4.8860    3.2730   18.2100 C   0  0  1  0  0  0  0  0  0  0  0  0
    5.7580    2.7130   17.8430 H   0  0  0  0  0  0  0  0  0  0  0  0
    5.1020    3.4810   19.7170 C   0  0  0  0  0  0  0  0  0  0  0  0
    6.1450    3.2790   19.9930 H   0  0  0  0  0  0  0  0  0  0  0  0
    4.8660    4.5040   20.0300 H   0  0  0  0  0  0  0  0  0  0  0  0
    4.4720    2.8080   20.3060 H   0  0  0  0  0  0  0  0  0  0  0  0
    3.6060    2.4640   17.9060 C   0  0  0  0  0  0  0  0  0  0  0  0
    3.2350    2.7160   16.9040 H   0  0  0  0  0  0  0  0  0  0  0  0
    3.8480    1.3930   17.8910 H   0  0  0  0  0  0  0  0  0  0  0  0
    2.5120    2.6640   18.9030 C   0  0  0  0  0  0  0  0  0  0  0  0
    2.3840    2.0930   20.0840 N   0  0  0  0  0  0  0  0  0  0  0  0
    1.2280    2.5580   20.6660 N   0  0  0  0  0  0  0  0  0  0  0  0
    0.6680    3.3920   19.8230 C   0  0  0  0  0  0  0  0  0  0  0  0
    1.4340    3.4870   18.7050 N   0  0  0  0  0  0  0  0  0  0  0  0
   -0.2590    3.9270   19.9770 H   0  0  0  0  0  0  0  0  0  0  0  0
    1.1490    4.2910   17.5460 C   0  0  0  0  0  0  0  0  0  0  0  0
    1.9830    4.9800   17.3890 H   0  0  0  0  0  0  0  0  0  0  0  0
    1.0250    3.6320   16.6820 H   0  0  0  0  0  0  0  0  0  0  0  0
    0.2280    4.8580   17.7110 H   0  0  0  0  0  0  0  0  0  0  0  0
    1.7680    9.5570   18.5930 C   0  0  0  0  0  0  0  0  0  0  0  0
    2.1690   10.7160   17.9920 N   0  0  0  0  0  0  0  0  0  0  0  0
    1.8740   11.8670   18.6340 C   0  0  0  0  0  0  0  0  0  0  0  0
    1.1880   11.9200   19.8330 C   0  0  0  0  0  0  0  0  0  0  0  0
    0.7750   10.7170   20.4030 C   0  0  0  0  0  0  0  0  0  0  0  0
    1.0860    9.5060   19.7960 C   0  0  0  0  0  0  0  0  0  0  0  0
    2.2150   12.7760   18.1460 H   0  0  0  0  0  0  0  0  0  0  0  0
    0.9860   12.8700   20.3200 H   0  0  0  0  0  0  0  0  0  0  0  0
    0.8240    8.5560   20.2500 H   0  0  0  0  0  0  0  0  0  0  0  0
    0.0810   10.7580   21.7050 C   0  0  0  0  0  0  0  0  0  0  0  0
    0.4120    9.9280   22.5480 O   0  0  0  0  0  0  0  0  0  0  0  0
   -0.8730   11.7350   21.9270 N   0  0  0  0  0  0  0  0  0  0  0  0
   -1.5440   11.7990   23.2190 C   0  0  0  0  0  0  0  0  0  0  0  0
   -2.0490   13.2280   23.3180 C   0  0  0  0  0  0  0  0  0  0  0  0
   -2.2930   13.5700   21.8600 C   0  0  2  0  0  0  0  0  0  0  0  0
   -1.1600   12.8990   21.0900 C   0  0  0  0  0  0  0  0  0  0  0  0
   -2.5770   15.0310   21.4870 C   0  0  0  0  0  0  0  0  0  0  0  0
   -3.6380   14.6250   20.5860 O   0  0  0  0  0  0  0  0  0  0  0  0
   -3.6840   13.3130   21.2190 C   0  0  2  0  0  0  0  0  0  0  0  0
   -5.1460   13.1370   22.2360 Cl  0  0  0  0  0  0  0  0  0  0  0  0
   -0.8710   11.5340   24.0410 H   0  0  0  0  0  0  0  0  0  0  0  0
   -2.3730   11.0840   23.1920 H   0  0  0  0  0  0  0  0  0  0  0  0
   -1.2550   13.8690   23.7230 H   0  0  0  0  0  0  0  0  0  0  0  0
   -2.9180   13.3240   23.9710 H   0  0  0  0  0  0  0  0  0  0  0  0
   -0.2570   13.5190   21.0660 H   0  0  0  0  0  0  0  0  0  0  0  0
   -1.4270   12.6110   20.0720 H   0  0  0  0  0  0  0  0  0  0  0  0
   -1.7740   15.5570   20.9610 H   0  0  0  0  0  0  0  0  0  0  0  0
   -2.9660   15.6670   22.2890 H   0  0  0  0  0  0  0  0  0  0  0  0
   -3.7110   12.5180   20.4640 H   0  0  0  0  0  0  0  0  0  0  0  0
  1  2  1  0  0  0  0
  1  4  1  0  0  0  0
  2 34  1  0  0  0  0
  3  2  2  0  0  0  0
  5  6  1  0  0  0  0
  5 15  1  0  0  0  0
  6 11  1  0  0  0  0
  7  1  1  0  0  0  0
  7  6  2  0  0  0  0
  8  7  1  0  0  0  0
  9  8  2  0  0  0  0
  9 10  1  0  0  0  0
 10  5  2  0  0  0  0
 12  8  1  0  0  0  0
 13  9  1  0  0  0  0
 14 10  1  0  0  0  0
 15 16  1  6  0  0  0
 15 17  1  0  0  0  0
 17 18  1  0  0  0  0
 17 19  1  0  0  0  0
 17 20  1  0  0  0  0
 21 15  1  0  0  0  0
 21 24  1  0  0  0  0
 22 21  1  0  0  0  0
 23 21  1  0  0  0  0
 24 25  2  0  0  0  0
 25 26  1  0  0  0  0
 27 29  1  0  0  0  0
 27 26  2  0  0  0  0
 28 24  1  0  0  0  0
 28 27  1  0  0  0  0
 30 33  1  0  0  0  0
 30 28  1  0  0  0  0
 31 30  1  0  0  0  0
 32 30  1  0  0  0  0
 34 39  1  0  0  0  0
 35 34  2  0  0  0  0
 35 36  1  0  0  0  0
 36 37  2  0  0  0  0
 37 41  1  0  0  0  0
 37 38  1  0  0  0  0
 38 43  1  0  0  0  0
 39 42  1  0  0  0  0
 39 38  2  0  0  0  0
 40 36  1  0  0  0  0
 43 45  1  0  0  0  0
 43 44  2  0  0  0  0
 45 46  1  0  0  0  0
 46 47  1  0  0  0  0
 46 54  1  0  0  0  0
 47 56  1  0  0  0  0
 47 57  1  0  0  0  0
 48 49  1  6  0  0  0
 48 47  1  0  0  0  0
 49 45  1  0  0  0  0
 50 48  1  0  0  0  0
 50 61  1  0  0  0  0
 51 52  1  0  0  0  0
 51 50  1  0  0  0  0
 52 62  1  6  0  0  0
 52 48  1  0  0  0  0
 52 53  1  0  0  0  0
 55 46  1  0  0  0  0
 58 49  1  0  0  0  0
 59 49  1  0  0  0  0
 60 50  1  0  0  0  0
M  END
>  <MODEL>
23

>  <REMARK>
 VINA RESULT:    -7.119      3.323      5.108
 INTER + INTRA:          -9.674
 INTER:                  -9.598
 INTRA:                  -0.076
 UNBOUND:                 0.359
  Name = 
  8 active torsions:
  status: ('A' for Active; 'I' for Inactive)
    1  A    between atoms: C_1  and  C_2
    2  A    between atoms: C_2  and  C_3
    3  A    between atoms: C_2  and  C_10
    4  A    between atoms: C_3  and  C_4
    5  A    between atoms: N_8  and  C_9
    6  A    between atoms: C_12  and  N_16
    7  A    between atoms: C_17  and  C_19
    8  A    between atoms: C_23  and  C_25
                            x       y       z     vdW  Elec       q    Type
                         _______ _______ _______ _____ _____    ______ ____

>  <TORSDO>
F 8

$$$$
=
 OpenBabel07192307433D

 62 66  0  0  1  0  0  0  0  0999 V2000
    1.5860    9.6820   20.1060 N   0  0  0  0  0  0  0  0  0  0  0  0
    0.4460   10.4170   19.8410 C   0  0  0  0  0  0  0  0  0  0  0  0
   -0.6510    9.9980   19.4920 O   0  0  0  0  0  0  0  0  0  0  0  0
    2.3870   10.2470   20.3840 H   0  0  0  0  0  0  0  0  0  0  0  0
    2.7570    6.4310   18.7710 C   0  0  0  0  0  0  0  0  0  0  0  0
    2.5340    7.8090   18.9510 C   0  0  0  0  0  0  0  0  0  0  0  0
    1.7660    8.2910   20.0210 C   0  0  0  0  0  0  0  0  0  0  0  0
    1.2270    7.3820   20.9310 C   0  0  0  0  0  0  0  0  0  0  0  0
    1.4440    6.0110   20.7710 C   0  0  0  0  0  0  0  0  0  0  0  0
    2.2040    5.5390   19.7000 C   0  0  0  0  0  0  0  0  0  0  0  0
    2.9660    8.5160   18.2470 H   0  0  0  0  0  0  0  0  0  0  0  0
    0.6250    7.7070   21.7750 H   0  0  0  0  0  0  0  0  0  0  0  0
    1.0170    5.3120   21.4850 H   0  0  0  0  0  0  0  0  0  0  0  0
    2.3610    4.4670   19.5990 H   0  0  0  0  0  0  0  0  0  0  0  0
    3.6140    5.8880   17.6330 C   0  0  1  0  0  0  0  0  0  0  0  0
    2.9350    5.5650   16.8310 H   0  0  0  0  0  0  0  0  0  0  0  0
    4.5160    6.9770   17.0310 C   0  0  0  0  0  0  0  0  0  0  0  0
    4.7640    6.7440   15.9870 H   0  0  0  0  0  0  0  0  0  0  0  0
    4.0410    7.9630   17.0500 H   0  0  0  0  0  0  0  0  0  0  0  0
    5.4590    7.0600   17.5800 H   0  0  0  0  0  0  0  0  0  0  0  0
    4.4170    4.6680   18.1320 C   0  0  0  0  0  0  0  0  0  0  0  0
    5.3440    4.5670   17.5510 H   0  0  0  0  0  0  0  0  0  0  0  0
    4.7180    4.8320   19.1760 H   0  0  0  0  0  0  0  0  0  0  0  0
    3.6600    3.3820   18.0810 C   0  0  0  0  0  0  0  0  0  0  0  0
    2.7900    2.9950   17.1690 N   0  0  0  0  0  0  0  0  0  0  0  0
    2.3280    1.7460   17.5140 N   0  0  0  0  0  0  0  0  0  0  0  0
    2.9160    1.4020   18.6350 C   0  0  0  0  0  0  0  0  0  0  0  0
    3.7560    2.3960   19.0290 N   0  0  0  0  0  0  0  0  0  0  0  0
    2.7670    0.4770   19.1760 H   0  0  0  0  0  0  0  0  0  0  0  0
    4.5700    2.4000   20.2150 C   0  0  0  0  0  0  0  0  0  0  0  0
    3.9140    2.4920   21.0850 H   0  0  0  0  0  0  0  0  0  0  0  0
    5.1370    1.4670   20.2560 H   0  0  0  0  0  0  0  0  0  0  0  0
    5.2600    3.2480   20.1820 H   0  0  0  0  0  0  0  0  0  0  0  0
    0.6530   11.8930   20.0120 C   0  0  0  0  0  0  0  0  0  0  0  0
   -0.4500   12.6170   20.3650 N   0  0  0  0  0  0  0  0  0  0  0  0
   -0.2770   13.9480   20.5260 C   0  0  0  0  0  0  0  0  0  0  0  0
    0.9390   14.5850   20.3680 C   0  0  0  0  0  0  0  0  0  0  0  0
    2.0460   13.8080   20.0300 C   0  0  0  0  0  0  0  0  0  0  0  0
    1.9100   12.4410   19.8200 C   0  0  0  0  0  0  0  0  0  0  0  0
   -1.1700   14.5070   20.7930 H   0  0  0  0  0  0  0  0  0  0  0  0
    1.0260   15.6610   20.4940 H   0  0  0  0  0  0  0  0  0  0  0  0
    2.7440   11.8260   19.5010 H   0  0  0  0  0  0  0  0  0  0  0  0
    3.3400   14.4840   19.8150 C   0  0  0  0  0  0  0  0  0  0  0  0
    3.4790   15.1200   18.7730 O   0  0  0  0  0  0  0  0  0  0  0  0
    4.3130   14.4010   20.7960 N   0  0  0  0  0  0  0  0  0  0  0  0
    5.5830   15.0870   20.6030 C   0  0  0  0  0  0  0  0  0  0  0  0
    6.1390   15.2670   22.0040 C   0  0  0  0  0  0  0  0  0  0  0  0
    5.5630   14.0590   22.7210 C   0  0  2  0  0  0  0  0  0  0  0  0
    4.1580   13.8810   22.1530 C   0  0  0  0  0  0  0  0  0  0  0  0
    5.6770   13.9900   24.2490 C   0  0  0  0  0  0  0  0  0  0  0  0
    6.0480   12.5890   24.1860 O   0  0  0  0  0  0  0  0  0  0  0  0
    6.3600   12.7260   22.7700 C   0  0  2  0  0  0  0  0  0  0  0  0
    8.1280   12.7020   22.4920 Cl  0  0  0  0  0  0  0  0  0  0  0  0
    5.4570   16.0390   20.0760 H   0  0  0  0  0  0  0  0  0  0  0  0
    6.2210   14.4300   20.0020 H   0  0  0  0  0  0  0  0  0  0  0  0
    5.7330   16.1880   22.4430 H   0  0  0  0  0  0  0  0  0  0  0  0
    7.2270   15.3440   22.0210 H   0  0  0  0  0  0  0  0  0  0  0  0
    3.4260   14.5130   22.6680 H   0  0  0  0  0  0  0  0  0  0  0  0
    3.8080   12.8480   22.1550 H   0  0  0  0  0  0  0  0  0  0  0  0
    4.7480   14.1420   24.8080 H   0  0  0  0  0  0  0  0  0  0  0  0
    6.4770   14.5860   24.7010 H   0  0  0  0  0  0  0  0  0  0  0  0
    5.9250   11.9010   22.1940 H   0  0  0  0  0  0  0  0  0  0  0  0
  1  4  1  0  0  0  0
  2 34  1  0  0  0  0
  2  1  1  0  0  0  0
  3  2  2  0  0  0  0
  5  6  2  0  0  0  0
  5 10  1  0  0  0  0
  6  7  1  0  0  0  0
  7  1  1  0  0  0  0
  7  8  2  0  0  0  0
  8 12  1  0  0  0  0
  9  8  1  0  0  0  0
  9 13  1  0  0  0  0
 10  9  2  0  0  0  0
 11  6  1  0  0  0  0
 14 10  1  0  0  0  0
 15 16  1  6  0  0  0
 15 21  1  0  0  0  0
 15  5  1  0  0  0  0
 17 19  1  0  0  0  0
 17 20  1  0  0  0  0
 17 15  1  0  0  0  0
 18 17  1  0  0  0  0
 21 23  1  0  0  0  0
 22 21  1  0  0  0  0
 24 21  1  0  0  0  0
 24 28  1  0  0  0  0
 25 26  1  0  0  0  0
 25 24  2  0  0  0  0
 26 27  2  0  0  0  0
 27 28  1  0  0  0  0
 27 29  1  0  0  0  0
 28 30  1  0  0  0  0
 30 32  1  0  0  0  0
 30 31  1  0  0  0  0
 33 30  1  0  0  0  0
 34 35  1  0  0  0  0
 35 36  2  0  0  0  0
 36 40  1  0  0  0  0
 37 41  1  0  0  0  0
 37 36  1  0  0  0  0
 38 37  2  0  0  0  0
 39 34  2  0  0  0  0
 39 38  1  0  0  0  0
 42 39  1  0  0  0  0
 43 38  1  0  0  0  0
 43 45  1  0  0  0  0
 44 43  2  0  0  0  0
 45 49  1  0  0  0  0
 46 45  1  0  0  0  0
 46 47  1  0  0  0  0
 47 57  1  0  0  0  0
 47 56  1  0  0  0  0
 48 47  1  6  0  0  0
 48 52  1  0  0  0  0
 48 50  1  0  0  0  0
 49 59  1  0  0  0  0
 49 58  1  0  0  0  0
 49 48  1  0  0  0  0
 50 61  1  0  0  0  0
 50 60  1  0  0  0  0
 51 50  1  0  0  0  0
 52 62  1  6  0  0  0
 52 51  1  0  0  0  0
 53 52  1  0  0  0  0
 54 46  1  0  0  0  0
 55 46  1  0  0  0  0
M  END
>  <MODEL>
24

>  <REMARK>
 VINA RESULT:    -7.035      2.820      4.375
 INTER + INTRA:          -9.555
 INTER:                  -8.829
 INTRA:                  -0.726
 UNBOUND:                 0.359
  Name = 
  8 active torsions:
  status: ('A' for Active; 'I' for Inactive)
    1  A    between atoms: C_1  and  C_2
    2  A    between atoms: C_2  and  C_3
    3  A    between atoms: C_2  and  C_10
    4  A    between atoms: C_3  and  C_4
    5  A    between atoms: N_8  and  C_9
    6  A    between atoms: C_12  and  N_16
    7  A    between atoms: C_17  and  C_19
    8  A    between atoms: C_23  and  C_25
                            x       y       z     vdW  Elec       q    Type
                         _______ _______ _______ _____ _____    ______ ____

>  <TORSDO>
F 8

$$$$
=
 OpenBabel07192307433D

 62 66  0  0  1  0  0  0  0  0999 V2000
    0.2810    9.8050   19.9000 N   0  0  0  0  0  0  0  0  0  0  0  0
    1.2660    9.2720   19.0910 C   0  0  0  0  0  0  0  0  0  0  0  0
    1.8880    9.8370   18.1990 O   0  0  0  0  0  0  0  0  0  0  0  0
   -0.0970    9.1470   20.5790 H   0  0  0  0  0  0  0  0  0  0  0  0
    0.1300   13.4810   20.3300 C   0  0  0  0  0  0  0  0  0  0  0  0
    0.5810   12.1490   20.2970 C   0  0  0  0  0  0  0  0  0  0  0  0
   -0.2560   11.1040   19.8820 C   0  0  0  0  0  0  0  0  0  0  0  0
   -1.5600   11.3990   19.4830 C   0  0  0  0  0  0  0  0  0  0  0  0
   -2.0220   12.7170   19.5040 C   0  0  0  0  0  0  0  0  0  0  0  0
   -1.1840   13.7500   19.9230 C   0  0  0  0  0  0  0  0  0  0  0  0
    1.6020   11.9240   20.5980 H   0  0  0  0  0  0  0  0  0  0  0  0
   -2.2460   10.6230   19.1550 H   0  0  0  0  0  0  0  0  0  0  0  0
   -3.0410   12.9340   19.1920 H   0  0  0  0  0  0  0  0  0  0  0  0
   -1.5670   14.7680   19.9270 H   0  0  0  0  0  0  0  0  0  0  0  0
    1.0330   14.6360   20.7480 C   0  0  1  0  0  0  0  0  0  0  0  0
    0.9480   15.4200   19.9820 H   0  0  0  0  0  0  0  0  0  0  0  0
    0.5750   15.2670   22.0720 C   0  0  0  0  0  0  0  0  0  0  0  0
   -0.0390   16.1570   21.8890 H   0  0  0  0  0  0  0  0  0  0  0  0
   -0.0160   14.5710   22.6770 H   0  0  0  0  0  0  0  0  0  0  0  0
    1.4290   15.5790   22.6800 H   0  0  0  0  0  0  0  0  0  0  0  0
    2.4970   14.1480   20.8040 C   0  0  0  0  0  0  0  0  0  0  0  0
    2.9640   14.4730   21.7430 H   0  0  0  0  0  0  0  0  0  0  0  0
    2.5140   13.0500   20.8080 H   0  0  0  0  0  0  0  0  0  0  0  0
    3.3320   14.6050   19.6540 C   0  0  0  0  0  0  0  0  0  0  0  0
    2.9520   14.7940   18.4060 N   0  0  0  0  0  0  0  0  0  0  0  0
    4.0430   15.2100   17.6790 N   0  0  0  0  0  0  0  0  0  0  0  0
    5.0690   15.2540   18.4950 C   0  0  0  0  0  0  0  0  0  0  0  0
    4.6730   14.8810   19.7400 N   0  0  0  0  0  0  0  0  0  0  0  0
    6.0790   15.5400   18.2340 H   0  0  0  0  0  0  0  0  0  0  0  0
    5.5100   14.7900   20.9060 C   0  0  0  0  0  0  0  0  0  0  0  0
    5.0090   15.2980   21.7340 H   0  0  0  0  0  0  0  0  0  0  0  0
    5.6710   13.7350   21.1420 H   0  0  0  0  0  0  0  0  0  0  0  0
    6.4720   15.2720   20.7050 H   0  0  0  0  0  0  0  0  0  0  0  0
    1.5500    7.8300   19.3900 C   0  0  0  0  0  0  0  0  0  0  0  0
    1.1200    7.3730   20.6030 N   0  0  0  0  0  0  0  0  0  0  0  0
    1.3660    6.0740   20.8850 C   0  0  0  0  0  0  0  0  0  0  0  0
    2.0020    5.2100   20.0130 C   0  0  0  0  0  0  0  0  0  0  0  0
    2.4040    5.7090   18.7750 C   0  0  0  0  0  0  0  0  0  0  0  0
    2.2040    7.0470   18.4550 C   0  0  0  0  0  0  0  0  0  0  0  0
    1.0300    5.7350   21.8610 H   0  0  0  0  0  0  0  0  0  0  0  0
    2.1910    4.1770   20.2900 H   0  0  0  0  0  0  0  0  0  0  0  0
    2.5580    7.4700   17.5220 H   0  0  0  0  0  0  0  0  0  0  0  0
    3.1230    4.8080   17.8550 C   0  0  0  0  0  0  0  0  0  0  0  0
    2.4810    3.9010   17.3320 O   0  0  0  0  0  0  0  0  0  0  0  0
    4.4630    5.0410   17.5970 N   0  0  0  0  0  0  0  0  0  0  0  0
    5.1750    4.1730   16.6690 C   0  0  0  0  0  0  0  0  0  0  0  0
    6.3600    4.9990   16.2020 C   0  0  0  0  0  0  0  0  0  0  0  0
    6.6220    5.8740   17.4150 C   0  0  2  0  0  0  0  0  0  0  0  0
    5.2450    6.2190   17.9720 C   0  0  0  0  0  0  0  0  0  0  0  0
    7.5960    7.0510   17.2730 C   0  0  0  0  0  0  0  0  0  0  0  0
    8.2070    6.7360   18.5500 O   0  0  0  0  0  0  0  0  0  0  0  0
    7.6120    5.4060   18.5160 C   0  0  2  0  0  0  0  0  0  0  0  0
    8.8460    4.1560   18.1720 Cl  0  0  0  0  0  0  0  0  0  0  0  0
    4.5360    3.8500   15.8410 H   0  0  0  0  0  0  0  0  0  0  0  0
    5.5010    3.2910   17.2320 H   0  0  0  0  0  0  0  0  0  0  0  0
    6.0580    5.6240   15.3510 H   0  0  0  0  0  0  0  0  0  0  0  0
    7.2030    4.3850   15.8790 H   0  0  0  0  0  0  0  0  0  0  0  0
    4.8020    7.0840   17.4660 H   0  0  0  0  0  0  0  0  0  0  0  0
    5.2340    6.3860   19.0500 H   0  0  0  0  0  0  0  0  0  0  0  0
    7.1470    8.0490   17.2700 H   0  0  0  0  0  0  0  0  0  0  0  0
    8.3270    6.9770   16.4610 H   0  0  0  0  0  0  0  0  0  0  0  0
    7.1550    5.1600   19.4810 H   0  0  0  0  0  0  0  0  0  0  0  0
  1  4  1  0  0  0  0
  2 34  1  0  0  0  0
  2  1  1  0  0  0  0
  3  2  2  0  0  0  0
  5 15  1  0  0  0  0
  6  5  1  0  0  0  0
  6 11  1  0  0  0  0
  7  1  1  0  0  0  0
  7  6  2  0  0  0  0
  8  9  2  0  0  0  0
  8  7  1  0  0  0  0
  9 10  1  0  0  0  0
 10 14  1  0  0  0  0
 10  5  2  0  0  0  0
 12  8  1  0  0  0  0
 13  9  1  0  0  0  0
 15 16  1  6  0  0  0
 15 21  1  0  0  0  0
 15 17  1  0  0  0  0
 17 19  1  0  0  0  0
 17 20  1  0  0  0  0
 18 17  1  0  0  0  0
 21 23  1  0  0  0  0
 21 22  1  0  0  0  0
 24 28  1  0  0  0  0
 24 21  1  0  0  0  0
 25 24  2  0  0  0  0
 26 25  1  0  0  0  0
 26 27  2  0  0  0  0
 27 28  1  0  0  0  0
 28 30  1  0  0  0  0
 29 27  1  0  0  0  0
 30 32  1  0  0  0  0
 30 31  1  0  0  0  0
 33 30  1  0  0  0  0
 34 35  1  0  0  0  0
 35 36  2  0  0  0  0
 36 40  1  0  0  0  0
 37 41  1  0  0  0  0
 37 36  1  0  0  0  0
 38 37  2  0  0  0  0
 39 38  1  0  0  0  0
 39 34  2  0  0  0  0
 42 39  1  0  0  0  0
 43 38  1  0  0  0  0
 44 43  2  0  0  0  0
 45 43  1  0  0  0  0
 45 49  1  0  0  0  0
 46 55  1  0  0  0  0
 46 45  1  0  0  0  0
 47 46  1  0  0  0  0
 48 47  1  6  0  0  0
 48 49  1  0  0  0  0
 48 52  1  0  0  0  0
 49 59  1  0  0  0  0
 50 48  1  0  0  0  0
 50 51  1  0  0  0  0
 52 51  1  0  0  0  0
 52 62  1  1  0  0  0
 53 52  1  0  0  0  0
 54 46  1  0  0  0  0
 56 47  1  0  0  0  0
 57 47  1  0  0  0  0
 58 49  1  0  0  0  0
 60 50  1  0  0  0  0
 61 50  1  0  0  0  0
M  END
>  <MODEL>
25

>  <REMARK>
 VINA RESULT:    -7.000      3.095      9.191
 INTER + INTRA:          -9.506
 INTER:                  -8.700
 INTRA:                  -0.806
 UNBOUND:                 0.359
  Name = 
  8 active torsions:
  status: ('A' for Active; 'I' for Inactive)
    1  A    between atoms: C_1  and  C_2
    2  A    between atoms: C_2  and  C_3
    3  A    between atoms: C_2  and  C_10
    4  A    between atoms: C_3  and  C_4
    5  A    between atoms: N_8  and  C_9
    6  A    between atoms: C_12  and  N_16
    7  A    between atoms: C_17  and  C_19
    8  A    between atoms: C_23  and  C_25
                            x       y       z     vdW  Elec       q    Type
                         _______ _______ _______ _____ _____    ______ ____

>  <TORSDO>
F 8

$$$$
=
 OpenBabel07192307433D

 62 66  0  0  1  0  0  0  0  0999 V2000
    0.3190    8.1460   21.0950 N   0  0  0  0  0  0  0  0  0  0  0  0
    1.3240    7.9050   20.1780 C   0  0  0  0  0  0  0  0  0  0  0  0
    1.9740    8.7300   19.5470 O   0  0  0  0  0  0  0  0  0  0  0  0
   -0.0820    7.3020   21.5000 H   0  0  0  0  0  0  0  0  0  0  0  0
   -1.1760   11.5230   20.8130 C   0  0  0  0  0  0  0  0  0  0  0  0
   -0.6470   10.2570   20.5020 C   0  0  0  0  0  0  0  0  0  0  0  0
   -0.2100    9.3810   21.5060 C   0  0  0  0  0  0  0  0  0  0  0  0
   -0.3170    9.7740   22.8400 C   0  0  0  0  0  0  0  0  0  0  0  0
   -0.8460   11.0250   23.1660 C   0  0  0  0  0  0  0  0  0  0  0  0
   -1.2730   11.8930   22.1620 C   0  0  0  0  0  0  0  0  0  0  0  0
   -0.5760    9.9490   19.4610 H   0  0  0  0  0  0  0  0  0  0  0  0
    0.0100    9.1300   23.6520 H   0  0  0  0  0  0  0  0  0  0  0  0
   -0.9220   11.3210   24.2100 H   0  0  0  0  0  0  0  0  0  0  0  0
   -1.6840   12.8600   22.4420 H   0  0  0  0  0  0  0  0  0  0  0  0
   -1.6860   12.4780   19.7390 C   0  0  1  0  0  0  0  0  0  0  0  0
   -1.5100   12.0040   18.7620 H   0  0  0  0  0  0  0  0  0  0  0  0
   -3.2020   12.7020   19.8500 C   0  0  0  0  0  0  0  0  0  0  0  0
   -3.7140   12.3720   18.9360 H   0  0  0  0  0  0  0  0  0  0  0  0
   -3.6380   12.1570   20.6930 H   0  0  0  0  0  0  0  0  0  0  0  0
   -3.4380   13.7610   19.9910 H   0  0  0  0  0  0  0  0  0  0  0  0
   -0.8890   13.7980   19.8050 C   0  0  0  0  0  0  0  0  0  0  0  0
   -1.3400   14.5410   19.1350 H   0  0  0  0  0  0  0  0  0  0  0  0
   -0.9550   14.2120   20.8210 H   0  0  0  0  0  0  0  0  0  0  0  0
    0.5590   13.6490   19.4740 C   0  0  0  0  0  0  0  0  0  0  0  0
    1.0880   13.1540   18.3730 N   0  0  0  0  0  0  0  0  0  0  0  0
    2.4570   13.2000   18.4910 N   0  0  0  0  0  0  0  0  0  0  0  0
    2.7360   13.7100   19.6670 C   0  0  0  0  0  0  0  0  0  0  0  0
    1.5810   14.0030   20.3180 N   0  0  0  0  0  0  0  0  0  0  0  0
    3.7260   13.8770   20.0710 H   0  0  0  0  0  0  0  0  0  0  0  0
    1.4680   14.5650   21.6380 C   0  0  0  0  0  0  0  0  0  0  0  0
    1.7860   15.6100   21.5980 H   0  0  0  0  0  0  0  0  0  0  0  0
    0.4270   14.4900   21.9650 H   0  0  0  0  0  0  0  0  0  0  0  0
    2.1100   14.0100   22.3280 H   0  0  0  0  0  0  0  0  0  0  0  0
    1.5910    6.4430   19.9760 C   0  0  0  0  0  0  0  0  0  0  0  0
    1.0540    5.6000   20.9070 N   0  0  0  0  0  0  0  0  0  0  0  0
    1.2840    4.2800   20.7350 C   0  0  0  0  0  0  0  0  0  0  0  0
    2.0060    3.7610   19.6770 C   0  0  0  0  0  0  0  0  0  0  0  0
    2.5180    4.6510   18.7350 C   0  0  0  0  0  0  0  0  0  0  0  0
    2.3370    6.0210   18.8890 C   0  0  0  0  0  0  0  0  0  0  0  0
    0.8600    3.6280   21.4950 H   0  0  0  0  0  0  0  0  0  0  0  0
    2.1770    2.6920   19.5890 H   0  0  0  0  0  0  0  0  0  0  0  0
    2.7740    6.7350   18.2000 H   0  0  0  0  0  0  0  0  0  0  0  0
    3.3290    4.1130   17.6260 C   0  0  0  0  0  0  0  0  0  0  0  0
    2.7920    3.3040   16.8730 O   0  0  0  0  0  0  0  0  0  0  0  0
    4.6280    4.5600   17.4650 N   0  0  0  0  0  0  0  0  0  0  0  0
    5.4280    4.0540   16.3580 C   0  0  0  0  0  0  0  0  0  0  0  0
    6.5010    5.1060   16.1460 C   0  0  0  0  0  0  0  0  0  0  0  0
    6.6720    5.6590   17.5500 C   0  0  2  0  0  0  0  0  0  0  0  0
    5.2690    5.6820   18.1500 C   0  0  0  0  0  0  0  0  0  0  0  0
    7.4980    6.9370   17.7390 C   0  0  0  0  0  0  0  0  0  0  0  0
    8.1560    6.3740   18.9020 O   0  0  0  0  0  0  0  0  0  0  0  0
    7.7220    5.0390   18.5110 C   0  0  2  0  0  0  0  0  0  0  0  0
    9.0910    4.0750   17.8780 Cl  0  0  0  0  0  0  0  0  0  0  0  0
    4.8220    3.8860   15.4610 H   0  0  0  0  0  0  0  0  0  0  0  0
    5.8610    3.1000   16.6780 H   0  0  0  0  0  0  0  0  0  0  0  0
    6.1170    5.8920   15.4810 H   0  0  0  0  0  0  0  0  0  0  0  0
    7.4070    4.7010   15.6910 H   0  0  0  0  0  0  0  0  0  0  0  0
    4.7220    6.5910   17.8780 H   0  0  0  0  0  0  0  0  0  0  0  0
    5.2510    5.5600   19.2340 H   0  0  0  0  0  0  0  0  0  0  0  0
    6.9330    7.8420   17.9870 H   0  0  0  0  0  0  0  0  0  0  0  0
    8.2230    7.1640   16.9510 H   0  0  0  0  0  0  0  0  0  0  0  0
    7.3080    4.4980   19.3690 H   0  0  0  0  0  0  0  0  0  0  0  0
  1  4  1  0  0  0  0
  1  7  1  0  0  0  0
  2  1  1  0  0  0  0
  3  2  2  0  0  0  0
  5 10  1  0  0  0  0
  6  5  2  0  0  0  0
  6  7  1  0  0  0  0
  7  8  2  0  0  0  0
  8  9  1  0  0  0  0
  8 12  1  0  0  0  0
  9 13  1  0  0  0  0
 10 14  1  0  0  0  0
 10  9  2  0  0  0  0
 11  6  1  0  0  0  0
 15 16  1  6  0  0  0
 15 21  1  0  0  0  0
 15 17  1  0  0  0  0
 15  5  1  0  0  0  0
 17 20  1  0  0  0  0
 17 19  1  0  0  0  0
 18 17  1  0  0  0  0
 21 23  1  0  0  0  0
 22 21  1  0  0  0  0
 24 21  1  0  0  0  0
 24 28  1  0  0  0  0
 25 26  1  0  0  0  0
 25 24  2  0  0  0  0
 26 27  2  0  0  0  0
 27 29  1  0  0  0  0
 27 28  1  0  0  0  0
 28 30  1  0  0  0  0
 30 32  1  0  0  0  0
 30 33  1  0  0  0  0
 31 30  1  0  0  0  0
 34  2  1  0  0  0  0
 34 35  1  0  0  0  0
 36 35  2  0  0  0  0
 36 40  1  0  0  0  0
 37 36  1  0  0  0  0
 38 39  1  0  0  0  0
 38 37  2  0  0  0  0
 39 34  2  0  0  0  0
 41 37  1  0  0  0  0
 42 39  1  0  0  0  0
 43 38  1  0  0  0  0
 44 43  2  0  0  0  0
 45 43  1  0  0  0  0
 45 49  1  0  0  0  0
 46 55  1  0  0  0  0
 46 45  1  0  0  0  0
 47 46  1  0  0  0  0
 48 47  1  6  0  0  0
 48 50  1  0  0  0  0
 48 49  1  0  0  0  0
 48 52  1  0  0  0  0
 49 59  1  0  0  0  0
 50 60  1  0  0  0  0
 50 51  1  0  0  0  0
 52 51  1  0  0  0  0
 52 62  1  1  0  0  0
 53 52  1  0  0  0  0
 54 46  1  0  0  0  0
 56 47  1  0  0  0  0
 57 47  1  0  0  0  0
 58 49  1  0  0  0  0
 61 50  1  0  0  0  0
M  END
>  <MODEL>
26

>  <REMARK>
 VINA RESULT:    -6.834      2.870      8.963
 INTER + INTRA:          -9.272
 INTER:                  -8.596
 INTRA:                  -0.676
 UNBOUND:                 0.359
  Name = 
  8 active torsions:
  status: ('A' for Active; 'I' for Inactive)
    1  A    between atoms: C_1  and  C_2
    2  A    between atoms: C_2  and  C_3
    3  A    between atoms: C_2  and  C_10
    4  A    between atoms: C_3  and  C_4
    5  A    between atoms: N_8  and  C_9
    6  A    between atoms: C_12  and  N_16
    7  A    between atoms: C_17  and  C_19
    8  A    between atoms: C_23  and  C_25
                            x       y       z     vdW  Elec       q    Type
                         _______ _______ _______ _____ _____    ______ ____

>  <TORSDO>
F 8

$$$$
=
 OpenBabel07192307433D

 62 66  0  0  1  0  0  0  0  0999 V2000
    2.6070    7.5350   19.1500 N   0  0  0  0  0  0  0  0  0  0  0  0
    1.9650    7.1970   20.3260 C   0  0  0  0  0  0  0  0  0  0  0  0
    1.9160    6.0970   20.8620 O   0  0  0  0  0  0  0  0  0  0  0  0
    2.5150    8.5170   18.8960 H   0  0  0  0  0  0  0  0  0  0  0  0
    3.8340    4.4040   17.5950 C   0  0  0  0  0  0  0  0  0  0  0  0
    3.1390    5.3190   18.4080 C   0  0  0  0  0  0  0  0  0  0  0  0
    3.3350    6.7020   18.2820 C   0  0  0  0  0  0  0  0  0  0  0  0
    4.2290    7.1750   17.3220 C   0  0  0  0  0  0  0  0  0  0  0  0
    4.9220    6.2800   16.5040 C   0  0  0  0  0  0  0  0  0  0  0  0
    4.7260    4.9060   16.6380 C   0  0  0  0  0  0  0  0  0  0  0  0
    2.4330    4.9480   19.1470 H   0  0  0  0  0  0  0  0  0  0  0  0
    4.4150    8.2370   17.1890 H   0  0  0  0  0  0  0  0  0  0  0  0
    5.6190    6.6610   15.7600 H   0  0  0  0  0  0  0  0  0  0  0  0
    5.2760    4.2300   15.9870 H   0  0  0  0  0  0  0  0  0  0  0  0
    3.6120    2.8990   17.6940 C   0  0  1  0  0  0  0  0  0  0  0  0
    2.5410    2.7090   17.5350 H   0  0  0  0  0  0  0  0  0  0  0  0
    4.3610    2.1400   16.5870 C   0  0  0  0  0  0  0  0  0  0  0  0
    5.4410    2.1290   16.7830 H   0  0  0  0  0  0  0  0  0  0  0  0
    4.0260    1.1010   16.5020 H   0  0  0  0  0  0  0  0  0  0  0  0
    4.2100    2.6100   15.6110 H   0  0  0  0  0  0  0  0  0  0  0  0
    4.0030    2.4140   19.1070 C   0  0  0  0  0  0  0  0  0  0  0  0
    4.2850    1.3530   19.0730 H   0  0  0  0  0  0  0  0  0  0  0  0
    4.8900    2.9640   19.4480 H   0  0  0  0  0  0  0  0  0  0  0  0
    2.9330    2.6080   20.1310 C   0  0  0  0  0  0  0  0  0  0  0  0
    3.0840    2.8830   21.4110 N   0  0  0  0  0  0  0  0  0  0  0  0
    1.8370    2.9700   21.9840 N   0  0  0  0  0  0  0  0  0  0  0  0
    0.9520    2.7350   21.0450 C   0  0  0  0  0  0  0  0  0  0  0  0
    1.5910    2.5000   19.8700 N   0  0  0  0  0  0  0  0  0  0  0  0
   -0.1230    2.7250   21.1700 H   0  0  0  0  0  0  0  0  0  0  0  0
    0.9680    2.1910   18.6110 C   0  0  0  0  0  0  0  0  0  0  0  0
   -0.0730    1.9150   18.7970 H   0  0  0  0  0  0  0  0  0  0  0  0
    1.0240    3.0710   17.9650 H   0  0  0  0  0  0  0  0  0  0  0  0
    1.4920    1.3550   18.1380 H   0  0  0  0  0  0  0  0  0  0  0  0
    1.2610    8.3600   20.9600 C   0  0  0  0  0  0  0  0  0  0  0  0
    0.9880    8.2440   22.2930 N   0  0  0  0  0  0  0  0  0  0  0  0
    0.3570    9.2860   22.8770 C   0  0  0  0  0  0  0  0  0  0  0  0
    0.0020   10.4390   22.2040 C   0  0  0  0  0  0  0  0  0  0  0  0
    0.3190   10.5300   20.8490 C   0  0  0  0  0  0  0  0  0  0  0  0
    0.9360    9.4690   20.1970 C   0  0  0  0  0  0  0  0  0  0  0  0
    0.1360    9.1670   23.9340 H   0  0  0  0  0  0  0  0  0  0  0  0
   -0.5180   11.2460   22.7130 H   0  0  0  0  0  0  0  0  0  0  0  0
    1.1410    9.4940   19.1330 H   0  0  0  0  0  0  0  0  0  0  0  0
   -0.0960   11.7380   20.1100 C   0  0  0  0  0  0  0  0  0  0  0  0
    0.3590   12.8160   20.4850 O   0  0  0  0  0  0  0  0  0  0  0  0
   -0.9380   11.6020   19.0200 N   0  0  0  0  0  0  0  0  0  0  0  0
   -1.3320   12.7860   18.2680 C   0  0  0  0  0  0  0  0  0  0  0  0
   -1.7390   12.2560   16.9050 C   0  0  0  0  0  0  0  0  0  0  0  0
   -2.2560   10.8720   17.2540 C   0  0  2  0  0  0  0  0  0  0  0  0
   -1.3330   10.3600   18.3560 C   0  0  0  0  0  0  0  0  0  0  0  0
   -2.5400    9.8860   16.1130 C   0  0  0  0  0  0  0  0  0  0  0  0
   -3.7780    9.4710   16.7430 O   0  0  0  0  0  0  0  0  0  0  0  0
   -3.7580   10.6590   17.5860 C   0  0  2  0  0  0  0  0  0  0  0  0
   -4.9920   11.8450   17.0620 Cl  0  0  0  0  0  0  0  0  0  0  0  0
   -0.5210   13.5190   18.2080 H   0  0  0  0  0  0  0  0  0  0  0  0
   -2.1820   13.2370   18.7910 H   0  0  0  0  0  0  0  0  0  0  0  0
   -0.8510   12.1720   16.2650 H   0  0  0  0  0  0  0  0  0  0  0  0
   -2.4540   12.9050   16.3950 H   0  0  0  0  0  0  0  0  0  0  0  0
   -0.4250    9.9000   17.9500 H   0  0  0  0  0  0  0  0  0  0  0  0
   -1.8130    9.6650   19.0470 H   0  0  0  0  0  0  0  0  0  0  0  0
   -1.8350    9.0550   16.0100 H   0  0  0  0  0  0  0  0  0  0  0  0
   -2.7290   10.3280   15.1290 H   0  0  0  0  0  0  0  0  0  0  0  0
   -3.9730   10.3990   18.6290 H   0  0  0  0  0  0  0  0  0  0  0  0
  1  2  1  0  0  0  0
  2  3  2  0  0  0  0
  2 34  1  0  0  0  0
  4  1  1  0  0  0  0
  5 15  1  0  0  0  0
  5  6  1  0  0  0  0
  6 11  1  0  0  0  0
  7  6  2  0  0  0  0
  7  1  1  0  0  0  0
  8  7  1  0  0  0  0
  9 10  1  0  0  0  0
  9  8  2  0  0  0  0
 10  5  2  0  0  0  0
 12  8  1  0  0  0  0
 13  9  1  0  0  0  0
 14 10  1  0  0  0  0
 15 16  1  6  0  0  0
 15 21  1  0  0  0  0
 17 18  1  0  0  0  0
 17 15  1  0  0  0  0
 19 17  1  0  0  0  0
 20 17  1  0  0  0  0
 21 23  1  0  0  0  0
 21 24  1  0  0  0  0
 22 21  1  0  0  0  0
 24 25  2  0  0  0  0
 25 26  1  0  0  0  0
 27 29  1  0  0  0  0
 27 26  2  0  0  0  0
 28 24  1  0  0  0  0
 28 27  1  0  0  0  0
 30 31  1  0  0  0  0
 30 28  1  0  0  0  0
 32 30  1  0  0  0  0
 33 30  1  0  0  0  0
 34 35  1  0  0  0  0
 35 36  2  0  0  0  0
 36 40  1  0  0  0  0
 37 41  1  0  0  0  0
 37 36  1  0  0  0  0
 38 37  2  0  0  0  0
 39 38  1  0  0  0  0
 39 34  2  0  0  0  0
 42 39  1  0  0  0  0
 43 44  2  0  0  0  0
 43 38  1  0  0  0  0
 45 43  1  0  0  0  0
 46 55  1  0  0  0  0
 46 45  1  0  0  0  0
 47 48  1  0  0  0  0
 47 46  1  0  0  0  0
 48 50  1  6  0  0  0
 48 52  1  0  0  0  0
 48 49  1  0  0  0  0
 49 45  1  0  0  0  0
 49 59  1  0  0  0  0
 50 51  1  0  0  0  0
 51 52  1  0  0  0  0
 52 62  1  1  0  0  0
 53 52  1  0  0  0  0
 54 46  1  0  0  0  0
 56 47  1  0  0  0  0
 57 47  1  0  0  0  0
 58 49  1  0  0  0  0
 60 50  1  0  0  0  0
 61 50  1  0  0  0  0
M  END
>  <MODEL>
27

>  <REMARK>
 VINA RESULT:    -6.808      3.141      4.964
 INTER + INTRA:          -9.235
 INTER:                  -9.583
 INTRA:                   0.348
 UNBOUND:                 0.359
  Name = 
  8 active torsions:
  status: ('A' for Active; 'I' for Inactive)
    1  A    between atoms: C_1  and  C_2
    2  A    between atoms: C_2  and  C_3
    3  A    between atoms: C_2  and  C_10
    4  A    between atoms: C_3  and  C_4
    5  A    between atoms: N_8  and  C_9
    6  A    between atoms: C_12  and  N_16
    7  A    between atoms: C_17  and  C_19
    8  A    between atoms: C_23  and  C_25
                            x       y       z     vdW  Elec       q    Type
                         _______ _______ _______ _____ _____    ______ ____

>  <TORSDO>
F 8

$$$$
=
 OpenBabel07192307433D

 62 66  0  0  1  0  0  0  0  0999 V2000
    1.0340    8.1960   20.9950 N   0  0  0  0  0  0  0  0  0  0  0  0
    1.6280    7.9720   19.7680 C   0  0  0  0  0  0  0  0  0  0  0  0
    1.6090    8.7020   18.7830 O   0  0  0  0  0  0  0  0  0  0  0  0
    1.1860    7.4480   21.6700 H   0  0  0  0  0  0  0  0  0  0  0  0
   -0.9910   11.2840   20.7040 C   0  0  0  0  0  0  0  0  0  0  0  0
   -0.2170   10.1510   20.3960 C   0  0  0  0  0  0  0  0  0  0  0  0
    0.2550    9.2930   21.4010 C   0  0  0  0  0  0  0  0  0  0  0  0
   -0.0640    9.5680   22.7300 C   0  0  0  0  0  0  0  0  0  0  0  0
   -0.8370   10.6870   23.0520 C   0  0  0  0  0  0  0  0  0  0  0  0
   -1.2980   11.5380   22.0480 C   0  0  0  0  0  0  0  0  0  0  0  0
    0.0200    9.9320   19.3580 H   0  0  0  0  0  0  0  0  0  0  0  0
    0.2790    8.9340   23.5430 H   0  0  0  0  0  0  0  0  0  0  0  0
   -1.0780   10.8920   24.0930 H   0  0  0  0  0  0  0  0  0  0  0  0
   -1.9000   12.4000   22.3250 H   0  0  0  0  0  0  0  0  0  0  0  0
   -1.5390   12.2120   19.6250 C   0  0  1  0  0  0  0  0  0  0  0  0
   -1.2990   11.7660   18.6490 H   0  0  0  0  0  0  0  0  0  0  0  0
   -3.0710   12.3200   19.6920 C   0  0  0  0  0  0  0  0  0  0  0  0
   -3.5170   11.3620   19.9880 H   0  0  0  0  0  0  0  0  0  0  0  0
   -3.3980   13.0770   20.4120 H   0  0  0  0  0  0  0  0  0  0  0  0
   -3.4930   12.5910   18.7210 H   0  0  0  0  0  0  0  0  0  0  0  0
   -0.8470   13.5880   19.7300 C   0  0  0  0  0  0  0  0  0  0  0  0
   -1.3520   14.3110   19.0760 H   0  0  0  0  0  0  0  0  0  0  0  0
   -0.9490   13.9680   20.7560 H   0  0  0  0  0  0  0  0  0  0  0  0
    0.6100   13.5600   19.4040 C   0  0  0  0  0  0  0  0  0  0  0  0
    1.1800   13.1280   18.2970 N   0  0  0  0  0  0  0  0  0  0  0  0
    2.5410   13.2790   18.4240 N   0  0  0  0  0  0  0  0  0  0  0  0
    2.7740   13.7890   19.6100 C   0  0  0  0  0  0  0  0  0  0  0  0
    1.5960   13.9780   20.2600 N   0  0  0  0  0  0  0  0  0  0  0  0
    3.7460   14.0260   20.0210 H   0  0  0  0  0  0  0  0  0  0  0  0
    1.4350   14.5060   21.5880 C   0  0  0  0  0  0  0  0  0  0  0  0
    2.3140   15.1090   21.8310 H   0  0  0  0  0  0  0  0  0  0  0  0
    0.5280   15.1170   21.6160 H   0  0  0  0  0  0  0  0  0  0  0  0
    1.3440   13.6820   22.3010 H   0  0  0  0  0  0  0  0  0  0  0  0
    2.3560    6.6630   19.7030 C   0  0  0  0  0  0  0  0  0  0  0  0
    1.6300    5.5540   20.0320 N   0  0  0  0  0  0  0  0  0  0  0  0
    2.2730    4.3670   19.9750 C   0  0  0  0  0  0  0  0  0  0  0  0
    3.5940    4.2310   19.5920 C   0  0  0  0  0  0  0  0  0  0  0  0
    4.2950    5.3840   19.2410 C   0  0  0  0  0  0  0  0  0  0  0  0
    3.6860    6.6300   19.3180 C   0  0  0  0  0  0  0  0  0  0  0  0
    1.6810    3.5000   20.2550 H   0  0  0  0  0  0  0  0  0  0  0  0
    4.0730    3.2560   19.5750 H   0  0  0  0  0  0  0  0  0  0  0  0
    4.2280    7.5450   19.1040 H   0  0  0  0  0  0  0  0  0  0  0  0
    5.7190    5.2560   18.8740 C   0  0  0  0  0  0  0  0  0  0  0  0
    6.5510    5.4790   19.7490 O   0  0  0  0  0  0  0  0  0  0  0  0
    6.0490    4.8630   17.5880 N   0  0  0  0  0  0  0  0  0  0  0  0
    7.4510    4.7090   17.2250 C   0  0  0  0  0  0  0  0  0  0  0  0
    7.4360    3.7740   16.0290 C   0  0  0  0  0  0  0  0  0  0  0  0
    6.0980    4.1050   15.3950 C   0  0  2  0  0  0  0  0  0  0  0  0
    5.1450    4.3470   16.5610 C   0  0  0  0  0  0  0  0  0  0  0  0
    5.5680    3.1930   14.2810 C   0  0  0  0  0  0  0  0  0  0  0  0
    5.1510    4.3420   13.5000 O   0  0  0  0  0  0  0  0  0  0  0  0
    6.0000    5.2090   14.3060 C   0  0  2  0  0  0  0  0  0  0  0  0
    7.4490    5.7270   13.3910 Cl  0  0  0  0  0  0  0  0  0  0  0  0
    8.0470    4.3180   18.0560 H   0  0  0  0  0  0  0  0  0  0  0  0
    7.8280    5.7000   16.9520 H   0  0  0  0  0  0  0  0  0  0  0  0
    7.4350    2.7320   16.3780 H   0  0  0  0  0  0  0  0  0  0  0  0
    8.3040    3.9040   15.3800 H   0  0  0  0  0  0  0  0  0  0  0  0
    4.7140    3.4130   16.9390 H   0  0  0  0  0  0  0  0  0  0  0  0
    4.3410    5.0500   16.3370 H   0  0  0  0  0  0  0  0  0  0  0  0
    4.7220    2.5510   14.5470 H   0  0  0  0  0  0  0  0  0  0  0  0
    6.3180    2.6040   13.7420 H   0  0  0  0  0  0  0  0  0  0  0  0
    5.4590    6.1130   14.6060 H   0  0  0  0  0  0  0  0  0  0  0  0
  1  7  1  0  0  0  0
  1  4  1  0  0  0  0
  2  1  1  0  0  0  0
  3  2  2  0  0  0  0
  5 10  1  0  0  0  0
  6  5  2  0  0  0  0
  6  7  1  0  0  0  0
  7  8  2  0  0  0  0
  8  9  1  0  0  0  0
  8 12  1  0  0  0  0
  9 13  1  0  0  0  0
 10 14  1  0  0  0  0
 10  9  2  0  0  0  0
 11  6  1  0  0  0  0
 15 16  1  6  0  0  0
 15 17  1  0  0  0  0
 15 21  1  0  0  0  0
 15  5  1  0  0  0  0
 17 18  1  0  0  0  0
 17 19  1  0  0  0  0
 20 17  1  0  0  0  0
 21 23  1  0  0  0  0
 22 21  1  0  0  0  0
 24 21  1  0  0  0  0
 24 28  1  0  0  0  0
 25 26  1  0  0  0  0
 25 24  2  0  0  0  0
 26 27  2  0  0  0  0
 27 29  1  0  0  0  0
 27 28  1  0  0  0  0
 28 30  1  0  0  0  0
 30 32  1  0  0  0  0
 30 31  1  0  0  0  0
 30 33  1  0  0  0  0
 34  2  1  0  0  0  0
 34 35  1  0  0  0  0
 36 35  2  0  0  0  0
 36 40  1  0  0  0  0
 37 36  1  0  0  0  0
 38 39  1  0  0  0  0
 38 37  2  0  0  0  0
 39 34  2  0  0  0  0
 41 37  1  0  0  0  0
 42 39  1  0  0  0  0
 43 38  1  0  0  0  0
 43 44  2  0  0  0  0
 45 43  1  0  0  0  0
 46 45  1  0  0  0  0
 46 54  1  0  0  0  0
 47 56  1  0  0  0  0
 47 46  1  0  0  0  0
 48 50  1  6  0  0  0
 48 47  1  0  0  0  0
 48 49  1  0  0  0  0
 49 58  1  0  0  0  0
 49 45  1  0  0  0  0
 50 60  1  0  0  0  0
 51 50  1  0  0  0  0
 51 52  1  0  0  0  0
 52 62  1  1  0  0  0
 52 48  1  0  0  0  0
 53 52  1  0  0  0  0
 55 46  1  0  0  0  0
 57 47  1  0  0  0  0
 59 49  1  0  0  0  0
 61 50  1  0  0  0  0
M  END
>  <MODEL>
28

>  <REMARK>
 VINA RESULT:    -6.750      2.726      9.306
 INTER + INTRA:          -9.153
 INTER:                  -8.556
 INTRA:                  -0.597
 UNBOUND:                 0.359
  Name = 
  8 active torsions:
  status: ('A' for Active; 'I' for Inactive)
    1  A    between atoms: C_1  and  C_2
    2  A    between atoms: C_2  and  C_3
    3  A    between atoms: C_2  and  C_10
    4  A    between atoms: C_3  and  C_4
    5  A    between atoms: N_8  and  C_9
    6  A    between atoms: C_12  and  N_16
    7  A    between atoms: C_17  and  C_19
    8  A    between atoms: C_23  and  C_25
                            x       y       z     vdW  Elec       q    Type
                         _______ _______ _______ _____ _____    ______ ____

>  <TORSDO>
F 8

$$$$
=
 OpenBabel07192307433D

 62 66  0  0  1  0  0  0  0  0999 V2000
    0.7900    9.0270   19.3190 N   0  0  0  0  0  0  0  0  0  0  0  0
    1.7890    8.5800   18.4750 C   0  0  0  0  0  0  0  0  0  0  0  0
    2.1590    9.0840   17.4220 O   0  0  0  0  0  0  0  0  0  0  0  0
    0.6560    8.4470   20.1460 H   0  0  0  0  0  0  0  0  0  0  0  0
   -0.4600   12.4880   19.7460 C   0  0  0  0  0  0  0  0  0  0  0  0
    0.3230   11.3220   19.8260 C   0  0  0  0  0  0  0  0  0  0  0  0
   -0.0490   10.1440   19.1640 C   0  0  0  0  0  0  0  0  0  0  0  0
   -1.2160   10.1370   18.4000 C   0  0  0  0  0  0  0  0  0  0  0  0
   -2.0030   11.2880   18.3040 C   0  0  0  0  0  0  0  0  0  0  0  0
   -1.6280   12.4540   18.9700 C   0  0  0  0  0  0  0  0  0  0  0  0
    1.2390   11.3340   20.4130 H   0  0  0  0  0  0  0  0  0  0  0  0
   -1.5460    9.2480   17.8700 H   0  0  0  0  0  0  0  0  0  0  0  0
   -2.9110   11.2690   17.7070 H   0  0  0  0  0  0  0  0  0  0  0  0
   -2.2560   13.3380   18.8780 H   0  0  0  0  0  0  0  0  0  0  0  0
   -0.0570   13.7880   20.4320 C   0  0  1  0  0  0  0  0  0  0  0  0
    0.9680   14.0280   20.1160 H   0  0  0  0  0  0  0  0  0  0  0  0
   -0.9390   14.9650   19.9860 C   0  0  0  0  0  0  0  0  0  0  0  0
   -1.0100   15.7220   20.7780 H   0  0  0  0  0  0  0  0  0  0  0  0
   -0.5470   15.4560   19.0890 H   0  0  0  0  0  0  0  0  0  0  0  0
   -1.9560   14.6350   19.7570 H   0  0  0  0  0  0  0  0  0  0  0  0
   -0.0750   13.5870   21.9630 C   0  0  0  0  0  0  0  0  0  0  0  0
    0.6080   12.7740   22.2410 H   0  0  0  0  0  0  0  0  0  0  0  0
    0.3010   14.4950   22.4530 H   0  0  0  0  0  0  0  0  0  0  0  0
   -1.4310   13.3060   22.5210 C   0  0  0  0  0  0  0  0  0  0  0  0
   -2.4350   14.1480   22.6650 N   0  0  0  0  0  0  0  0  0  0  0  0
   -3.4920   13.4710   23.2250 N   0  0  0  0  0  0  0  0  0  0  0  0
   -3.1080   12.2320   23.4230 C   0  0  0  0  0  0  0  0  0  0  0  0
   -1.8260   12.0830   23.0010 N   0  0  0  0  0  0  0  0  0  0  0  0
   -3.7060   11.4410   23.8550 H   0  0  0  0  0  0  0  0  0  0  0  0
   -1.0460   10.8760   23.0620 C   0  0  0  0  0  0  0  0  0  0  0  0
   -1.7200   10.0220   22.9570 H   0  0  0  0  0  0  0  0  0  0  0  0
   -0.3120   10.8890   22.2520 H   0  0  0  0  0  0  0  0  0  0  0  0
   -0.5290   10.8220   24.0240 H   0  0  0  0  0  0  0  0  0  0  0  0
    2.4480    7.3250   18.9660 C   0  0  0  0  0  0  0  0  0  0  0  0
    1.6790    6.5080   19.7440 N   0  0  0  0  0  0  0  0  0  0  0  0
    2.2590    5.3720   20.1900 C   0  0  0  0  0  0  0  0  0  0  0  0
    3.5560    5.0060   19.8860 C   0  0  0  0  0  0  0  0  0  0  0  0
    4.3010    5.8550   19.0700 C   0  0  0  0  0  0  0  0  0  0  0  0
    3.7590    7.0510   18.6160 C   0  0  0  0  0  0  0  0  0  0  0  0
    1.6340    4.7430   20.8200 H   0  0  0  0  0  0  0  0  0  0  0  0
    3.9840    4.0890   20.2810 H   0  0  0  0  0  0  0  0  0  0  0  0
    4.3380    7.7540   18.0270 H   0  0  0  0  0  0  0  0  0  0  0  0
    5.7020    5.4970   18.7760 C   0  0  0  0  0  0  0  0  0  0  0  0
    6.5190    5.6140   19.6850 O   0  0  0  0  0  0  0  0  0  0  0  0
    6.0240    5.0190   17.5170 N   0  0  0  0  0  0  0  0  0  0  0  0
    7.3990    4.6390   17.2260 C   0  0  0  0  0  0  0  0  0  0  0  0
    7.2920    3.6820   16.0510 C   0  0  0  0  0  0  0  0  0  0  0  0
    6.0510    4.1990   15.3460 C   0  0  2  0  0  0  0  0  0  0  0  0
    5.0970    4.6200   16.4590 C   0  0  0  0  0  0  0  0  0  0  0  0
    5.4360    3.3470   14.2280 C   0  0  0  0  0  0  0  0  0  0  0  0
    5.2400    4.5230   13.4020 O   0  0  0  0  0  0  0  0  0  0  0  0
    6.1770    5.2710   14.2290 C   0  0  2  0  0  0  0  0  0  0  0  0
    7.7280    5.5320   13.3750 Cl  0  0  0  0  0  0  0  0  0  0  0  0
    7.8890    4.1840   18.0930 H   0  0  0  0  0  0  0  0  0  0  0  0
    7.9390    5.5510   16.9500 H   0  0  0  0  0  0  0  0  0  0  0  0
    7.1130    2.6650   16.4230 H   0  0  0  0  0  0  0  0  0  0  0  0
    8.1980    3.6570   15.4430 H   0  0  0  0  0  0  0  0  0  0  0  0
    4.5090    3.7760   16.8360 H   0  0  0  0  0  0  0  0  0  0  0  0
    4.4240    5.4320   16.1800 H   0  0  0  0  0  0  0  0  0  0  0  0
    4.4890    2.8530   14.4670 H   0  0  0  0  0  0  0  0  0  0  0  0
    6.1070    2.6340   13.7390 H   0  0  0  0  0  0  0  0  0  0  0  0
    5.7710    6.2580   14.4820 H   0  0  0  0  0  0  0  0  0  0  0  0
  1  4  1  0  0  0  0
  2 34  1  0  0  0  0
  2  1  1  0  0  0  0
  3  2  2  0  0  0  0
  5  6  1  0  0  0  0
  5 15  1  0  0  0  0
  6 11  1  0  0  0  0
  7  1  1  0  0  0  0
  7  6  2  0  0  0  0
  8  7  1  0  0  0  0
  9  8  2  0  0  0  0
  9 10  1  0  0  0  0
 10  5  2  0  0  0  0
 12  8  1  0  0  0  0
 13  9  1  0  0  0  0
 14 10  1  0  0  0  0
 15 16  1  6  0  0  0
 15 21  1  0  0  0  0
 17 15  1  0  0  0  0
 17 18  1  0  0  0  0
 19 17  1  0  0  0  0
 20 17  1  0  0  0  0
 21 22  1  0  0  0  0
 21 23  1  0  0  0  0
 21 24  1  0  0  0  0
 24 25  2  0  0  0  0
 24 28  1  0  0  0  0
 25 26  1  0  0  0  0
 26 27  2  0  0  0  0
 27 29  1  0  0  0  0
 28 30  1  0  0  0  0
 28 27  1  0  0  0  0
 30 33  1  0  0  0  0
 31 30  1  0  0  0  0
 32 30  1  0  0  0  0
 34 35  1  0  0  0  0
 35 36  2  0  0  0  0
 36 40  1  0  0  0  0
 37 36  1  0  0  0  0
 37 41  1  0  0  0  0
 38 37  2  0  0  0  0
 39 34  2  0  0  0  0
 39 38  1  0  0  0  0
 42 39  1  0  0  0  0
 43 38  1  0  0  0  0
 43 44  2  0  0  0  0
 45 43  1  0  0  0  0
 46 45  1  0  0  0  0
 46 54  1  0  0  0  0
 47 56  1  0  0  0  0
 47 46  1  0  0  0  0
 48 50  1  6  0  0  0
 48 47  1  0  0  0  0
 48 49  1  0  0  0  0
 49 58  1  0  0  0  0
 49 45  1  0  0  0  0
 50 60  1  0  0  0  0
 51 50  1  0  0  0  0
 51 52  1  0  0  0  0
 52 62  1  1  0  0  0
 52 48  1  0  0  0  0
 53 52  1  0  0  0  0
 55 46  1  0  0  0  0
 57 47  1  0  0  0  0
 59 49  1  0  0  0  0
 61 50  1  0  0  0  0
M  END
>  <MODEL>
29

>  <REMARK>
 VINA RESULT:    -6.604      3.249     10.173
 INTER + INTRA:          -8.948
 INTER:                  -7.986
 INTRA:                  -0.962
 UNBOUND:                 0.359
  Name = 
  8 active torsions:
  status: ('A' for Active; 'I' for Inactive)
    1  A    between atoms: C_1  and  C_2
    2  A    between atoms: C_2  and  C_3
    3  A    between atoms: C_2  and  C_10
    4  A    between atoms: C_3  and  C_4
    5  A    between atoms: N_8  and  C_9
    6  A    between atoms: C_12  and  N_16
    7  A    between atoms: C_17  and  C_19
    8  A    between atoms: C_23  and  C_25
                            x       y       z     vdW  Elec       q    Type
                         _______ _______ _______ _____ _____    ______ ____

>  <TORSDO>
F 8

$$$$
=
 OpenBabel07192307433D

 62 66  0  0  1  0  0  0  0  0999 V2000
    2.4360    7.1400   19.1920 N   0  0  0  0  0  0  0  0  0  0  0  0
    2.0850    8.0380   18.2030 C   0  0  0  0  0  0  0  0  0  0  0  0
    2.5150    8.0950   17.0570 O   0  0  0  0  0  0  0  0  0  0  0  0
    1.9450    7.2810   20.0730 H   0  0  0  0  0  0  0  0  0  0  0  0
    5.5950    5.3900   18.3640 C   0  0  0  0  0  0  0  0  0  0  0  0
    4.5960    6.3730   18.4910 C   0  0  0  0  0  0  0  0  0  0  0  0
    3.3790    6.0980   19.1310 C   0  0  0  0  0  0  0  0  0  0  0  0
    3.1650    4.8270   19.6640 C   0  0  0  0  0  0  0  0  0  0  0  0
    4.1500    3.8420   19.5520 C   0  0  0  0  0  0  0  0  0  0  0  0
    5.3550    4.1210   18.9090 C   0  0  0  0  0  0  0  0  0  0  0  0
    4.7700    7.3660   18.0850 H   0  0  0  0  0  0  0  0  0  0  0  0
    2.2380    4.5670   20.1670 H   0  0  0  0  0  0  0  0  0  0  0  0
    3.9710    2.8540   19.9690 H   0  0  0  0  0  0  0  0  0  0  0  0
    6.1070    3.3380   18.8380 H   0  0  0  0  0  0  0  0  0  0  0  0
    6.9370    5.6770   17.7000 C   0  0  1  0  0  0  0  0  0  0  0  0
    7.4480    6.4450   18.2980 H   0  0  0  0  0  0  0  0  0  0  0  0
    7.8500    4.4400   17.7040 C   0  0  0  0  0  0  0  0  0  0  0  0
    7.2560    3.5170   17.7030 H   0  0  0  0  0  0  0  0  0  0  0  0
    8.5110    4.4130   16.8320 H   0  0  0  0  0  0  0  0  0  0  0  0
    8.4860    4.4190   18.5940 H   0  0  0  0  0  0  0  0  0  0  0  0
    6.6990    6.2260   16.2770 C   0  0  0  0  0  0  0  0  0  0  0  0
    5.9290    7.0090   16.3030 H   0  0  0  0  0  0  0  0  0  0  0  0
    7.6190    6.7020   15.9120 H   0  0  0  0  0  0  0  0  0  0  0  0
    6.3090    5.1830   15.2820 C   0  0  0  0  0  0  0  0  0  0  0  0
    5.2880    4.3520   15.3440 N   0  0  0  0  0  0  0  0  0  0  0  0
    5.3070    3.5580   14.2210 N   0  0  0  0  0  0  0  0  0  0  0  0
    6.3470    3.9120   13.5040 C   0  0  0  0  0  0  0  0  0  0  0  0
    7.0050    4.9220   14.1300 N   0  0  0  0  0  0  0  0  0  0  0  0
    6.6480    3.4770   12.5600 H   0  0  0  0  0  0  0  0  0  0  0  0
    8.2010    5.5730   13.6650 C   0  0  0  0  0  0  0  0  0  0  0  0
    7.9520    6.6020   13.3920 H   0  0  0  0  0  0  0  0  0  0  0  0
    8.9440    5.5560   14.4670 H   0  0  0  0  0  0  0  0  0  0  0  0
    8.5910    5.0430   12.7920 H   0  0  0  0  0  0  0  0  0  0  0  0
    1.0580    9.0330   18.6580 C   0  0  0  0  0  0  0  0  0  0  0  0
    0.3300    9.6370   17.6740 N   0  0  0  0  0  0  0  0  0  0  0  0
   -0.6010   10.5340   18.0710 C   0  0  0  0  0  0  0  0  0  0  0  0
   -0.8490   10.8430   19.3950 C   0  0  0  0  0  0  0  0  0  0  0  0
   -0.1010   10.1870   20.3700 C   0  0  0  0  0  0  0  0  0  0  0  0
    0.8910    9.2830   20.0090 C   0  0  0  0  0  0  0  0  0  0  0  0
   -1.1590   11.0140   17.2710 H   0  0  0  0  0  0  0  0  0  0  0  0
   -1.5980   11.5810   19.6640 H   0  0  0  0  0  0  0  0  0  0  0  0
    1.5240    8.8040   20.7480 H   0  0  0  0  0  0  0  0  0  0  0  0
   -0.3260   10.5410   21.7850 C   0  0  0  0  0  0  0  0  0  0  0  0
    0.2860    9.8980   22.6340 O   0  0  0  0  0  0  0  0  0  0  0  0
   -1.1770   11.5900   22.0880 N   0  0  0  0  0  0  0  0  0  0  0  0
   -1.3850   11.9640   23.4800 C   0  0  0  0  0  0  0  0  0  0  0  0
   -1.8650   13.4030   23.4230 C   0  0  0  0  0  0  0  0  0  0  0  0
   -2.5860   13.4350   22.0880 C   0  0  2  0  0  0  0  0  0  0  0  0
   -1.7540   12.5580   21.1560 C   0  0  0  0  0  0  0  0  0  0  0  0
   -3.0140   14.7930   21.5170 C   0  0  0  0  0  0  0  0  0  0  0  0
   -4.3020   14.2550   21.1270 O   0  0  0  0  0  0  0  0  0  0  0  0
   -4.1040   13.1140   22.0110 C   0  0  2  0  0  0  0  0  0  0  0  0
   -5.1420   13.2340   23.4640 Cl  0  0  0  0  0  0  0  0  0  0  0  0
   -0.4720   11.8490   24.0740 H   0  0  0  0  0  0  0  0  0  0  0  0
   -2.1580   11.3010   23.8840 H   0  0  0  0  0  0  0  0  0  0  0  0
   -0.9980   14.0770   23.3940 H   0  0  0  0  0  0  0  0  0  0  0  0
   -2.4710   13.6810   24.2870 H   0  0  0  0  0  0  0  0  0  0  0  0
   -0.9260   13.1130   20.7020 H   0  0  0  0  0  0  0  0  0  0  0  0
   -2.3350   12.0710   20.3720 H   0  0  0  0  0  0  0  0  0  0  0  0
   -2.4430   15.1540   20.6550 H   0  0  0  0  0  0  0  0  0  0  0  0
   -3.1320   15.6050   22.2420 H   0  0  0  0  0  0  0  0  0  0  0  0
   -4.3580   12.1780   21.5020 H   0  0  0  0  0  0  0  0  0  0  0  0
  1  4  1  0  0  0  0
  2 34  1  0  0  0  0
  2  1  1  0  0  0  0
  3  2  2  0  0  0  0
  5  6  2  0  0  0  0
  5 10  1  0  0  0  0
  6  7  1  0  0  0  0
  7  1  1  0  0  0  0
  7  8  2  0  0  0  0
  8 12  1  0  0  0  0
  9  8  1  0  0  0  0
  9 13  1  0  0  0  0
 10  9  2  0  0  0  0
 11  6  1  0  0  0  0
 14 10  1  0  0  0  0
 15 17  1  0  0  0  0
 15 16  1  1  0  0  0
 15  5  1  0  0  0  0
 17 20  1  0  0  0  0
 18 17  1  0  0  0  0
 19 17  1  0  0  0  0
 21 22  1  0  0  0  0
 21 15  1  0  0  0  0
 23 21  1  0  0  0  0
 24 25  2  0  0  0  0
 24 21  1  0  0  0  0
 26 25  1  0  0  0  0
 27 28  1  0  0  0  0
 27 26  2  0  0  0  0
 28 24  1  0  0  0  0
 29 27  1  0  0  0  0
 30 28  1  0  0  0  0
 30 32  1  0  0  0  0
 31 30  1  0  0  0  0
 33 30  1  0  0  0  0
 34 39  1  0  0  0  0
 35 36  1  0  0  0  0
 35 34  2  0  0  0  0
 36 37  2  0  0  0  0
 37 41  1  0  0  0  0
 37 38  1  0  0  0  0
 38 43  1  0  0  0  0
 39 38  2  0  0  0  0
 39 42  1  0  0  0  0
 40 36  1  0  0  0  0
 43 45  1  0  0  0  0
 43 44  2  0  0  0  0
 45 46  1  0  0  0  0
 46 55  1  0  0  0  0
 46 54  1  0  0  0  0
 47 46  1  0  0  0  0
 47 57  1  0  0  0  0
 48 49  1  6  0  0  0
 48 47  1  0  0  0  0
 49 45  1  0  0  0  0
 50 48  1  0  0  0  0
 50 61  1  0  0  0  0
 51 50  1  0  0  0  0
 51 52  1  0  0  0  0
 52 62  1  6  0  0  0
 52 48  1  0  0  0  0
 52 53  1  0  0  0  0
 56 47  1  0  0  0  0
 58 49  1  0  0  0  0
 59 49  1  0  0  0  0
 60 50  1  0  0  0  0
M  END
>  <MODEL>
30

>  <REMARK>
 VINA RESULT:    -6.502      3.415      4.387
 INTER + INTRA:          -8.804
 INTER:                  -9.163
 INTRA:                   0.359
 UNBOUND:                 0.359
  Name = 
  8 active torsions:
  status: ('A' for Active; 'I' for Inactive)
    1  A    between atoms: C_1  and  C_2
    2  A    between atoms: C_2  and  C_3
    3  A    between atoms: C_2  and  C_10
    4  A    between atoms: C_3  and  C_4
    5  A    between atoms: N_8  and  C_9
    6  A    between atoms: C_12  and  N_16
    7  A    between atoms: C_17  and  C_19
    8  A    between atoms: C_23  and  C_25
                            x       y       z     vdW  Elec       q    Type
                         _______ _______ _______ _____ _____    ______ ____

>  <TORSDO>
F 8

$$$$
=
 OpenBabel07192307433D

 62 66  0  0  1  0  0  0  0  0999 V2000
    1.5530    8.7710   18.2210 N   0  0  0  0  0  0  0  0  0  0  0  0
    1.5960   10.1520   18.2060 C   0  0  0  0  0  0  0  0  0  0  0  0
    2.5810   10.8680   18.0740 O   0  0  0  0  0  0  0  0  0  0  0  0
    0.6170    8.3880   18.3410 H   0  0  0  0  0  0  0  0  0  0  0  0
    3.7640    5.9250   19.0810 C   0  0  0  0  0  0  0  0  0  0  0  0
    2.7210    6.8700   19.0960 C   0  0  0  0  0  0  0  0  0  0  0  0
    2.6210    7.8630   18.1110 C   0  0  0  0  0  0  0  0  0  0  0  0
    3.5700    7.9030   17.0900 C   0  0  0  0  0  0  0  0  0  0  0  0
    4.6090    6.9690   17.0570 C   0  0  0  0  0  0  0  0  0  0  0  0
    4.7050    5.9870   18.0430 C   0  0  0  0  0  0  0  0  0  0  0  0
    1.9760    6.8290   19.8860 H   0  0  0  0  0  0  0  0  0  0  0  0
    3.5350    8.6540   16.3060 H   0  0  0  0  0  0  0  0  0  0  0  0
    5.3450    7.0110   16.2570 H   0  0  0  0  0  0  0  0  0  0  0  0
    5.5210    5.2700   17.9940 H   0  0  0  0  0  0  0  0  0  0  0  0
    3.8740    4.8190   20.1230 C   0  0  1  0  0  0  0  0  0  0  0  0
    4.8160    4.9690   20.6710 H   0  0  0  0  0  0  0  0  0  0  0  0
    2.7450    4.9030   21.1640 C   0  0  0  0  0  0  0  0  0  0  0  0
    2.6660    3.9660   21.7300 H   0  0  0  0  0  0  0  0  0  0  0  0
    2.9070    5.7150   21.8810 H   0  0  0  0  0  0  0  0  0  0  0  0
    1.7770    5.0800   20.6870 H   0  0  0  0  0  0  0  0  0  0  0  0
    3.9190    3.4480   19.4150 C   0  0  0  0  0  0  0  0  0  0  0  0
    4.3770    3.5550   18.4230 H   0  0  0  0  0  0  0  0  0  0  0  0
    4.5620    2.7640   19.9860 H   0  0  0  0  0  0  0  0  0  0  0  0
    2.5830    2.7950   19.2740 C   0  0  0  0  0  0  0  0  0  0  0  0
    2.0490    1.8750   20.0530 N   0  0  0  0  0  0  0  0  0  0  0  0
    0.8100    1.5500   19.5530 N   0  0  0  0  0  0  0  0  0  0  0  0
    0.6180    2.2690   18.4720 C   0  0  0  0  0  0  0  0  0  0  0  0
    1.7020    3.0600   18.2570 N   0  0  0  0  0  0  0  0  0  0  0  0
   -0.2590    2.2470   17.8400 H   0  0  0  0  0  0  0  0  0  0  0  0
    1.8790    3.9810   17.1660 C   0  0  0  0  0  0  0  0  0  0  0  0
    0.9210    4.0950   16.6510 H   0  0  0  0  0  0  0  0  0  0  0  0
    2.2180    4.9400   17.5670 H   0  0  0  0  0  0  0  0  0  0  0  0
    2.6270    3.5880   16.4720 H   0  0  0  0  0  0  0  0  0  0  0  0
    0.2450   10.7790   18.3850 C   0  0  0  0  0  0  0  0  0  0  0  0
   -0.8170   10.0590   17.9190 N   0  0  0  0  0  0  0  0  0  0  0  0
   -2.0410   10.6110   18.0770 C   0  0  0  0  0  0  0  0  0  0  0  0
   -2.2560   11.8310   18.6880 C   0  0  0  0  0  0  0  0  0  0  0  0
   -1.1480   12.5240   19.1720 C   0  0  0  0  0  0  0  0  0  0  0  0
    0.1330   12.0130   19.0010 C   0  0  0  0  0  0  0  0  0  0  0  0
   -2.8710   10.0280   17.6860 H   0  0  0  0  0  0  0  0  0  0  0  0
   -3.2580   12.2410   18.7790 H   0  0  0  0  0  0  0  0  0  0  0  0
    1.0140   12.5610   19.3180 H   0  0  0  0  0  0  0  0  0  0  0  0
   -1.3610   13.8490   19.7860 C   0  0  0  0  0  0  0  0  0  0  0  0
   -0.7800   14.8070   19.2820 O   0  0  0  0  0  0  0  0  0  0  0  0
   -2.2200   13.9590   20.8660 N   0  0  0  0  0  0  0  0  0  0  0  0
   -2.4560   15.2670   21.4620 C   0  0  0  0  0  0  0  0  0  0  0  0
   -3.7890   15.1280   22.1760 C   0  0  0  0  0  0  0  0  0  0  0  0
   -3.7830   13.6580   22.5550 C   0  0  2  0  0  0  0  0  0  0  0  0
   -3.1320   12.9370   21.3780 C   0  0  0  0  0  0  0  0  0  0  0  0
   -5.0810   13.0320   23.0830 C   0  0  0  0  0  0  0  0  0  0  0  0
   -4.3510   12.3270   24.1200 O   0  0  0  0  0  0  0  0  0  0  0  0
   -3.2060   13.2060   23.9250 C   0  0  2  0  0  0  0  0  0  0  0  0
   -3.0430   14.3640   25.2800 Cl  0  0  0  0  0  0  0  0  0  0  0  0
   -2.4650   16.0620   20.7100 H   0  0  0  0  0  0  0  0  0  0  0  0
   -1.6420   15.4550   22.1700 H   0  0  0  0  0  0  0  0  0  0  0  0
   -4.6060   15.3270   21.4690 H   0  0  0  0  0  0  0  0  0  0  0  0
   -3.8970   15.8230   23.0100 H   0  0  0  0  0  0  0  0  0  0  0  0
   -3.8540   12.7120   20.5850 H   0  0  0  0  0  0  0  0  0  0  0  0
   -2.6040   12.0240   21.6560 H   0  0  0  0  0  0  0  0  0  0  0  0
   -5.5930   12.3430   22.4040 H   0  0  0  0  0  0  0  0  0  0  0  0
   -5.8080   13.7240   23.5190 H   0  0  0  0  0  0  0  0  0  0  0  0
   -2.2770   12.6280   23.8720 H   0  0  0  0  0  0  0  0  0  0  0  0
  1  4  1  0  0  0  0
  2  1  1  0  0  0  0
  2 34  1  0  0  0  0
  3  2  2  0  0  0  0
  5  6  1  0  0  0  0
  5 15  1  0  0  0  0
  6 11  1  0  0  0  0
  7  1  1  0  0  0  0
  7  6  2  0  0  0  0
  8  7  1  0  0  0  0
  9  8  2  0  0  0  0
  9 10  1  0  0  0  0
 10  5  2  0  0  0  0
 12  8  1  0  0  0  0
 13  9  1  0  0  0  0
 14 10  1  0  0  0  0
 15 16  1  1  0  0  0
 15 17  1  0  0  0  0
 17 18  1  0  0  0  0
 17 19  1  0  0  0  0
 20 17  1  0  0  0  0
 21 23  1  0  0  0  0
 21 15  1  0  0  0  0
 22 21  1  0  0  0  0
 24 21  1  0  0  0  0
 24 25  2  0  0  0  0
 26 25  1  0  0  0  0
 27 26  2  0  0  0  0
 28 27  1  0  0  0  0
 28 24  1  0  0  0  0
 29 27  1  0  0  0  0
 30 32  1  0  0  0  0
 30 28  1  0  0  0  0
 31 30  1  0  0  0  0
 33 30  1  0  0  0  0
 34 39  1  0  0  0  0
 35 36  1  0  0  0  0
 35 34  2  0  0  0  0
 36 37  2  0  0  0  0
 37 41  1  0  0  0  0
 37 38  1  0  0  0  0
 38 43  1  0  0  0  0
 39 38  2  0  0  0  0
 39 42  1  0  0  0  0
 40 36  1  0  0  0  0
 43 45  1  0  0  0  0
 44 43  2  0  0  0  0
 45 49  1  0  0  0  0
 45 46  1  0  0  0  0
 46 55  1  0  0  0  0
 46 47  1  0  0  0  0
 47 48  1  0  0  0  0
 47 57  1  0  0  0  0
 48 49  1  6  0  0  0
 48 50  1  0  0  0  0
 48 52  1  0  0  0  0
 49 59  1  0  0  0  0
 50 61  1  0  0  0  0
 50 51  1  0  0  0  0
 52 62  1  6  0  0  0
 52 51  1  0  0  0  0
 52 53  1  0  0  0  0
 54 46  1  0  0  0  0
 56 47  1  0  0  0  0
 58 49  1  0  0  0  0
 60 50  1  0  0  0  0
M  END
>  <MODEL>
31

>  <REMARK>
 VINA RESULT:    -6.487      3.630      5.457
 INTER + INTRA:          -8.783
 INTER:                  -8.478
 INTRA:                  -0.305
 UNBOUND:                 0.359
  Name = 
  8 active torsions:
  status: ('A' for Active; 'I' for Inactive)
    1  A    between atoms: C_1  and  C_2
    2  A    between atoms: C_2  and  C_3
    3  A    between atoms: C_2  and  C_10
    4  A    between atoms: C_3  and  C_4
    5  A    between atoms: N_8  and  C_9
    6  A    between atoms: C_12  and  N_16
    7  A    between atoms: C_17  and  C_19
    8  A    between atoms: C_23  and  C_25
                            x       y       z     vdW  Elec       q    Type
                         _______ _______ _______ _____ _____    ______ ____

>  <TORSDO>
F 8

$$$$
=
 OpenBabel07192307433D

 62 66  0  0  1  0  0  0  0  0999 V2000
    1.7300    9.7930   19.6180 N   0  0  0  0  0  0  0  0  0  0  0  0
    0.5890   10.3850   20.1250 C   0  0  0  0  0  0  0  0  0  0  0  0
   -0.5320    9.8980   20.2100 O   0  0  0  0  0  0  0  0  0  0  0  0
    2.5550   10.3880   19.6510 H   0  0  0  0  0  0  0  0  0  0  0  0
    2.5650    6.1880   19.4300 C   0  0  0  0  0  0  0  0  0  0  0  0
    2.3700    7.5000   19.8990 C   0  0  0  0  0  0  0  0  0  0  0  0
    1.8740    8.5100   19.0610 C   0  0  0  0  0  0  0  0  0  0  0  0
    1.5580    8.1980   17.7390 C   0  0  0  0  0  0  0  0  0  0  0  0
    1.7400    6.8980   17.2590 C   0  0  0  0  0  0  0  0  0  0  0  0
    2.2380    5.9010   18.0970 C   0  0  0  0  0  0  0  0  0  0  0  0
    2.6060    7.7380   20.9340 H   0  0  0  0  0  0  0  0  0  0  0  0
    1.1730    8.9460   17.0520 H   0  0  0  0  0  0  0  0  0  0  0  0
    1.4920    6.6670   16.2260 H   0  0  0  0  0  0  0  0  0  0  0  0
    2.3690    4.8970   17.7000 H   0  0  0  0  0  0  0  0  0  0  0  0
    3.0730    5.0690   20.3320 C   0  0  1  0  0  0  0  0  0  0  0  0
    3.7460    5.5200   21.0760 H   0  0  0  0  0  0  0  0  0  0  0  0
    1.9300    4.4100   21.1200 C   0  0  0  0  0  0  0  0  0  0  0  0
    0.9920    4.4460   20.5510 H   0  0  0  0  0  0  0  0  0  0  0  0
    2.1410    3.3610   21.3510 H   0  0  0  0  0  0  0  0  0  0  0  0
    1.7550    4.9220   22.0710 H   0  0  0  0  0  0  0  0  0  0  0  0
    3.8690    4.0500   19.4880 C   0  0  0  0  0  0  0  0  0  0  0  0
    4.0630    3.1460   20.0800 H   0  0  0  0  0  0  0  0  0  0  0  0
    3.2620    3.7380   18.6280 H   0  0  0  0  0  0  0  0  0  0  0  0
    5.1610    4.5810   18.9590 C   0  0  0  0  0  0  0  0  0  0  0  0
    6.0850    5.2530   19.6140 N   0  0  0  0  0  0  0  0  0  0  0  0
    7.1050    5.5510   18.7400 N   0  0  0  0  0  0  0  0  0  0  0  0
    6.7760    5.0650   17.5670 C   0  0  0  0  0  0  0  0  0  0  0  0
    5.5670    4.4520   17.6550 N   0  0  0  0  0  0  0  0  0  0  0  0
    7.3630    5.1330   16.6620 H   0  0  0  0  0  0  0  0  0  0  0  0
    4.8600    3.8090   16.5800 C   0  0  0  0  0  0  0  0  0  0  0  0
    4.1290    3.1190   17.0090 H   0  0  0  0  0  0  0  0  0  0  0  0
    4.3620    4.5740   15.9780 H   0  0  0  0  0  0  0  0  0  0  0  0
    5.5680    3.2550   15.9560 H   0  0  0  0  0  0  0  0  0  0  0  0
    0.8250   11.7870   20.6030 C   0  0  0  0  0  0  0  0  0  0  0  0
   -0.1640   12.3350   21.3690 N   0  0  0  0  0  0  0  0  0  0  0  0
    0.0370   13.5970   21.8090 C   0  0  0  0  0  0  0  0  0  0  0  0
    1.1770   14.3290   21.5360 C   0  0  0  0  0  0  0  0  0  0  0  0
    2.1730   13.7260   20.7700 C   0  0  0  0  0  0  0  0  0  0  0  0
    1.9970   12.4430   20.2670 C   0  0  0  0  0  0  0  0  0  0  0  0
   -0.7680   14.0190   22.4040 H   0  0  0  0  0  0  0  0  0  0  0  0
    1.2870   15.3470   21.8990 H   0  0  0  0  0  0  0  0  0  0  0  0
    2.7330   11.9760   19.6220 H   0  0  0  0  0  0  0  0  0  0  0  0
    3.3750   14.5140   20.4350 C   0  0  0  0  0  0  0  0  0  0  0  0
    3.3070   15.2670   19.4660 O   0  0  0  0  0  0  0  0  0  0  0  0
    4.4990   14.3980   21.2340 N   0  0  0  0  0  0  0  0  0  0  0  0
    5.6810   15.1920   20.9260 C   0  0  0  0  0  0  0  0  0  0  0  0
    6.4490   15.2610   22.2340 C   0  0  0  0  0  0  0  0  0  0  0  0
    6.0670   13.9440   22.8850 C   0  0  2  0  0  0  0  0  0  0  0  0
    4.5990   13.7260   22.5280 C   0  0  0  0  0  0  0  0  0  0  0  0
    6.4340   13.7200   24.3570 C   0  0  0  0  0  0  0  0  0  0  0  0
    6.8660   12.3650   24.0720 O   0  0  0  0  0  0  0  0  0  0  0  0
    6.9330   12.6760   22.6510 C   0  0  2  0  0  0  0  0  0  0  0  0
    8.6290   12.8110   22.0970 Cl  0  0  0  0  0  0  0  0  0  0  0  0
    5.4180   16.1830   20.5410 H   0  0  0  0  0  0  0  0  0  0  0  0
    6.2460   14.6510   20.1590 H   0  0  0  0  0  0  0  0  0  0  0  0
    6.0710   16.0970   22.8360 H   0  0  0  0  0  0  0  0  0  0  0  0
    7.5200   15.4150   22.0880 H   0  0  0  0  0  0  0  0  0  0  0  0
    3.9280   14.2430   23.2220 H   0  0  0  0  0  0  0  0  0  0  0  0
    4.3120   12.6750   22.4630 H   0  0  0  0  0  0  0  0  0  0  0  0
    5.6030   13.7430   25.0690 H   0  0  0  0  0  0  0  0  0  0  0  0
    7.2630   14.3210   24.7450 H   0  0  0  0  0  0  0  0  0  0  0  0
    6.4550   11.8880   22.0580 H   0  0  0  0  0  0  0  0  0  0  0  0
  1  4  1  0  0  0  0
  1  2  1  0  0  0  0
  2  3  2  0  0  0  0
  2 34  1  0  0  0  0
  5  6  1  0  0  0  0
  5 15  1  0  0  0  0
  6 11  1  0  0  0  0
  7  1  1  0  0  0  0
  7  6  2  0  0  0  0
  8  7  1  0  0  0  0
  9  8  2  0  0  0  0
  9 10  1  0  0  0  0
 10  5  2  0  0  0  0
 12  8  1  0  0  0  0
 13  9  1  0  0  0  0
 14 10  1  0  0  0  0
 15 16  1  1  0  0  0
 15 17  1  0  0  0  0
 17 19  1  0  0  0  0
 17 20  1  0  0  0  0
 18 17  1  0  0  0  0
 21 22  1  0  0  0  0
 21 15  1  0  0  0  0
 23 21  1  0  0  0  0
 24 21  1  0  0  0  0
 24 25  2  0  0  0  0
 26 25  1  0  0  0  0
 27 28  1  0  0  0  0
 27 26  2  0  0  0  0
 28 24  1  0  0  0  0
 29 27  1  0  0  0  0
 30 31  1  0  0  0  0
 30 28  1  0  0  0  0
 32 30  1  0  0  0  0
 33 30  1  0  0  0  0
 34 35  1  0  0  0  0
 35 36  2  0  0  0  0
 36 40  1  0  0  0  0
 37 36  1  0  0  0  0
 37 41  1  0  0  0  0
 38 37  2  0  0  0  0
 39 34  2  0  0  0  0
 39 38  1  0  0  0  0
 42 39  1  0  0  0  0
 43 38  1  0  0  0  0
 43 45  1  0  0  0  0
 44 43  2  0  0  0  0
 45 49  1  0  0  0  0
 46 45  1  0  0  0  0
 46 47  1  0  0  0  0
 47 56  1  0  0  0  0
 48 47  1  6  0  0  0
 48 50  1  0  0  0  0
 49 48  1  0  0  0  0
 49 58  1  0  0  0  0
 50 61  1  0  0  0  0
 50 60  1  0  0  0  0
 51 50  1  0  0  0  0
 52 62  1  6  0  0  0
 52 48  1  0  0  0  0
 52 51  1  0  0  0  0
 53 52  1  0  0  0  0
 54 46  1  0  0  0  0
 55 46  1  0  0  0  0
 57 47  1  0  0  0  0
 59 49  1  0  0  0  0
M  END
>  <MODEL>
32

>  <REMARK>
 VINA RESULT:    -6.455      2.831      4.381
 INTER + INTRA:          -8.738
 INTER:                  -7.703
 INTRA:                  -1.035
 UNBOUND:                 0.359
  Name = 
  8 active torsions:
  status: ('A' for Active; 'I' for Inactive)
    1  A    between atoms: C_1  and  C_2
    2  A    between atoms: C_2  and  C_3
    3  A    between atoms: C_2  and  C_10
    4  A    between atoms: C_3  and  C_4
    5  A    between atoms: N_8  and  C_9
    6  A    between atoms: C_12  and  N_16
    7  A    between atoms: C_17  and  C_19
    8  A    between atoms: C_23  and  C_25
                            x       y       z     vdW  Elec       q    Type
                         _______ _______ _______ _____ _____    ______ ____

>  <TORSDO>
F 8

$$$$
