=
 OpenBabel07192307433D

 47 50  0  0  1  0  0  0  0  0999 V2000
   -0.1180   10.7960   19.8820 C   0  0  0  0  0  0  0  0  0  0  0  0
   -0.2840   10.8220   21.2740 C   0  0  0  0  0  0  0  0  0  0  0  0
    0.2910    9.8380   22.0760 C   0  0  0  0  0  0  0  0  0  0  0  0
    1.0460    8.8120   21.5020 C   0  0  0  0  0  0  0  0  0  0  0  0
    1.2350    8.7660   20.1220 C   0  0  0  0  0  0  0  0  0  0  0  0
    0.6520    9.7590   19.3210 C   0  0  0  0  0  0  0  0  0  0  0  0
   -0.8640   11.6130   21.7470 H   0  0  0  0  0  0  0  0  0  0  0  0
    0.1550    9.8660   23.1540 H   0  0  0  0  0  0  0  0  0  0  0  0
    1.4770    8.0650   22.1610 H   0  0  0  0  0  0  0  0  0  0  0  0
    0.8070    9.7330   18.2460 H   0  0  0  0  0  0  0  0  0  0  0  0
    1.9830    7.7720   19.4690 N   0  0  0  0  0  0  0  0  0  0  0  0
    2.1270    6.4410   19.8080 C   0  0  0  0  0  0  0  0  0  0  0  0
    1.6240    5.8560   20.7600 O   0  0  0  0  0  0  0  0  0  0  0  0
    2.4970    8.0410   18.6320 H   0  0  0  0  0  0  0  0  0  0  0  0
    3.0110    5.6930   18.8520 C   0  0  0  0  0  0  0  0  0  0  0  0
    3.6780    6.3780   17.8430 C   0  0  0  0  0  0  0  0  0  0  0  0
    4.4950    5.6520   16.9700 C   0  0  0  0  0  0  0  0  0  0  0  0
    5.2000    6.2770   15.9280 C   0  0  0  0  0  0  0  0  0  0  0  0
    6.0100    5.5300   15.0700 C   0  0  0  0  0  0  0  0  0  0  0  0
    6.1260    4.1530   15.2410 C   0  0  0  0  0  0  0  0  0  0  0  0
    5.4330    3.5160   16.2720 C   0  0  0  0  0  0  0  0  0  0  0  0
    4.6140    4.2580   17.1410 C   0  0  0  0  0  0  0  0  0  0  0  0
    3.8980    3.6720   18.1890 C   0  0  0  0  0  0  0  0  0  0  0  0
    3.0990    4.3470   19.0480 N   0  0  0  0  0  0  0  0  0  0  0  0
    3.5600    7.4530   17.7450 H   0  0  0  0  0  0  0  0  0  0  0  0
    5.1230    7.3520   15.7760 H   0  0  0  0  0  0  0  0  0  0  0  0
    6.5500    6.0250   14.2660 H   0  0  0  0  0  0  0  0  0  0  0  0
    6.7580    3.5740   14.5700 H   0  0  0  0  0  0  0  0  0  0  0  0
    5.5350    2.4400   16.3900 H   0  0  0  0  0  0  0  0  0  0  0  0
    3.9510    2.6010   18.3710 H   0  0  0  0  0  0  0  0  0  0  0  0
   -0.7510   11.8860   19.0300 C   0  0  2  0  0  0  0  0  0  0  0  0
   -0.3680   11.7790   18.0080 H   0  0  0  0  0  0  0  0  0  0  0  0
   -0.3890   13.2910   19.5210 C   0  0  0  0  0  0  0  0  0  0  0  0
   -1.1590   14.0220   19.2530 H   0  0  0  0  0  0  0  0  0  0  0  0
   -0.2530   13.3350   20.6080 H   0  0  0  0  0  0  0  0  0  0  0  0
    0.5490   13.6270   19.0630 H   0  0  0  0  0  0  0  0  0  0  0  0
   -2.5740   11.6650   18.9870 S   0  0  0  0  0  0  0  0  0  0  0  0
   -2.8060   11.0060   17.4090 C   0  0  0  0  0  0  0  0  0  0  0  0
   -1.9580   10.2790   16.7180 N   0  0  0  0  0  0  0  0  0  0  0  0
   -2.5530    9.9710   15.5150 N   0  0  0  0  0  0  0  0  0  0  0  0
   -3.7470   10.5170   15.5120 C   0  0  0  0  0  0  0  0  0  0  0  0
   -3.9510   11.1800   16.6850 N   0  0  0  0  0  0  0  0  0  0  0  0
   -4.4710   10.4600   14.7110 H   0  0  0  0  0  0  0  0  0  0  0  0
   -5.1400   11.8970   17.0550 C   0  0  0  0  0  0  0  0  0  0  0  0
   -5.1230   12.8790   16.5760 H   0  0  0  0  0  0  0  0  0  0  0  0
   -5.1670   12.0240   18.1410 H   0  0  0  0  0  0  0  0  0  0  0  0
   -6.0120   11.3220   16.7350 H   0  0  0  0  0  0  0  0  0  0  0  0
  1  2  1  0  0  0  0
  2  7  1  0  0  0  0
  2  3  2  0  0  0  0
  3  8  1  0  0  0  0
  4  3  1  0  0  0  0
  4  9  1  0  0  0  0
  5  4  2  0  0  0  0
  6  1  2  0  0  0  0
  6  5  1  0  0  0  0
 10  6  1  0  0  0  0
 11 12  1  0  0  0  0
 11  5  1  0  0  0  0
 12 13  2  0  0  0  0
 14 11  1  0  0  0  0
 15 24  1  0  0  0  0
 15 12  1  0  0  0  0
 16 15  2  0  0  0  0
 17 22  1  0  0  0  0
 17 16  1  0  0  0  0
 18 17  2  0  0  0  0
 19 20  2  0  0  0  0
 19 18  1  0  0  0  0
 20 21  1  0  0  0  0
 21 29  1  0  0  0  0
 21 22  2  0  0  0  0
 22 23  1  0  0  0  0
 23 30  1  0  0  0  0
 23 24  2  0  0  0  0
 25 16  1  0  0  0  0
 26 18  1  0  0  0  0
 27 19  1  0  0  0  0
 28 20  1  0  0  0  0
 31 32  1  6  0  0  0
 31 33  1  0  0  0  0
 31  1  1  0  0  0  0
 33 35  1  0  0  0  0
 34 33  1  0  0  0  0
 36 33  1  0  0  0  0
 37 31  1  0  0  0  0
 38 37  1  0  0  0  0
 39 38  2  0  0  0  0
 40 39  1  0  0  0  0
 41 40  2  0  0  0  0
 41 42  1  0  0  0  0
 42 44  1  0  0  0  0
 42 38  1  0  0  0  0
 43 41  1  0  0  0  0
 44 46  1  0  0  0  0
 45 44  1  0  0  0  0
 47 44  1  0  0  0  0
M  END
>  <MODEL>
1

>  <REMARK>
 VINA RESULT:    -8.035      0.000      0.000
 INTER + INTRA:         -11.402
 INTER:                 -10.851
 INTRA:                  -0.551
 UNBOUND:                -0.548
  Name = 
  7 active torsions:
  status: ('A' for Active; 'I' for Inactive)
    1  A    between atoms: C_1  and  C_2
    2  A    between atoms: C_2  and  C_3
    3  A    between atoms: C_2  and  S_22
    4  A    between atoms: C_7  and  N_9
    5  A    between atoms: C_10  and  C_11
    6  A    between atoms: S_22  and  C_23
    7  A    between atoms: N_27  and  C_28
                            x       y       z     vdW  Elec       q    Type
                         _______ _______ _______ _____ _____    ______ ____

>  <TORSDO>
F 7

$$$$
=
 OpenBabel07192307433D

 47 50  0  0  1  0  0  0  0  0999 V2000
    4.8150    4.3750   17.2390 C   0  0  0  0  0  0  0  0  0  0  0  0
    4.0900    3.1910   17.0390 C   0  0  0  0  0  0  0  0  0  0  0  0
    2.7450    3.1140   17.3970 C   0  0  0  0  0  0  0  0  0  0  0  0
    2.0990    4.2190   17.9560 C   0  0  0  0  0  0  0  0  0  0  0  0
    2.7920    5.4110   18.1580 C   0  0  0  0  0  0  0  0  0  0  0  0
    4.1460    5.4810   17.7960 C   0  0  0  0  0  0  0  0  0  0  0  0
    4.5680    2.3160   16.6010 H   0  0  0  0  0  0  0  0  0  0  0  0
    2.1920    2.1920   17.2400 H   0  0  0  0  0  0  0  0  0  0  0  0
    1.0510    4.1180   18.2200 H   0  0  0  0  0  0  0  0  0  0  0  0
    4.6870    6.4120   17.9410 H   0  0  0  0  0  0  0  0  0  0  0  0
    2.2150    6.5670   18.7090 N   0  0  0  0  0  0  0  0  0  0  0  0
    2.3630    7.8800   18.3040 C   0  0  0  0  0  0  0  0  0  0  0  0
    3.0380    8.3000   17.3720 O   0  0  0  0  0  0  0  0  0  0  0  0
    1.6020    6.4520   19.5140 H   0  0  0  0  0  0  0  0  0  0  0  0
    1.5740    8.8380   19.1500 C   0  0  0  0  0  0  0  0  0  0  0  0
    1.2270    8.4920   20.4510 C   0  0  0  0  0  0  0  0  0  0  0  0
    0.4930    9.4070   21.2120 C   0  0  0  0  0  0  0  0  0  0  0  0
    0.1080    9.1270   22.5330 C   0  0  0  0  0  0  0  0  0  0  0  0
   -0.6240   10.0580   23.2730 C   0  0  0  0  0  0  0  0  0  0  0  0
   -0.9810   11.2780   22.7040 C   0  0  0  0  0  0  0  0  0  0  0  0
   -0.6050   11.5730   21.3920 C   0  0  0  0  0  0  0  0  0  0  0  0
    0.1310   10.6430   20.6380 C   0  0  0  0  0  0  0  0  0  0  0  0
    0.5320   10.8860   19.3210 C   0  0  0  0  0  0  0  0  0  0  0  0
    1.2410   10.0200   18.5600 N   0  0  0  0  0  0  0  0  0  0  0  0
    1.5260    7.5300   20.8560 H   0  0  0  0  0  0  0  0  0  0  0  0
    0.3760    8.1790   22.9980 H   0  0  0  0  0  0  0  0  0  0  0  0
   -0.9160    9.8290   24.2950 H   0  0  0  0  0  0  0  0  0  0  0  0
   -1.5510   12.0010   23.2830 H   0  0  0  0  0  0  0  0  0  0  0  0
   -0.8920   12.5300   20.9640 H   0  0  0  0  0  0  0  0  0  0  0  0
    0.2830   11.8220   18.8260 H   0  0  0  0  0  0  0  0  0  0  0  0
    6.2810    4.4340   16.8340 C   0  0  2  0  0  0  0  0  0  0  0  0
    6.5590    3.4520   16.4330 H   0  0  0  0  0  0  0  0  0  0  0  0
    7.2000    4.7330   18.0220 C   0  0  0  0  0  0  0  0  0  0  0  0
    7.5430    5.7730   18.0150 H   0  0  0  0  0  0  0  0  0  0  0  0
    6.7140    4.5510   18.9870 H   0  0  0  0  0  0  0  0  0  0  0  0
    8.0930    4.0980   17.9840 H   0  0  0  0  0  0  0  0  0  0  0  0
    6.5110    5.6840   15.5080 S   0  0  0  0  0  0  0  0  0  0  0  0
    6.4170    4.7050   14.0890 C   0  0  0  0  0  0  0  0  0  0  0  0
    5.5310    3.7730   13.8230 N   0  0  0  0  0  0  0  0  0  0  0  0
    5.8320    3.2470   12.5870 N   0  0  0  0  0  0  0  0  0  0  0  0
    6.8910    3.8790   12.1360 C   0  0  0  0  0  0  0  0  0  0  0  0
    7.2950    4.8070   13.0490 N   0  0  0  0  0  0  0  0  0  0  0  0
    7.3820    3.7040   11.1880 H   0  0  0  0  0  0  0  0  0  0  0  0
    8.4140    5.6980   12.9100 C   0  0  0  0  0  0  0  0  0  0  0  0
    9.2690    5.2770   13.4460 H   0  0  0  0  0  0  0  0  0  0  0  0
    8.1610    6.6720   13.3380 H   0  0  0  0  0  0  0  0  0  0  0  0
    8.6410    5.8160   11.8480 H   0  0  0  0  0  0  0  0  0  0  0  0
  1  6  1  0  0  0  0
  2  1  2  0  0  0  0
  2  3  1  0  0  0  0
  3  4  2  0  0  0  0
  4  5  1  0  0  0  0
  4  9  1  0  0  0  0
  5 11  1  0  0  0  0
  6 10  1  0  0  0  0
  6  5  2  0  0  0  0
  7  2  1  0  0  0  0
  8  3  1  0  0  0  0
 11 14  1  0  0  0  0
 12 11  1  0  0  0  0
 12 15  1  0  0  0  0
 13 12  2  0  0  0  0
 15 16  1  0  0  0  0
 16 25  1  0  0  0  0
 16 17  2  0  0  0  0
 17 18  1  0  0  0  0
 18 26  1  0  0  0  0
 18 19  2  0  0  0  0
 19 27  1  0  0  0  0
 20 19  1  0  0  0  0
 20 28  1  0  0  0  0
 21 20  2  0  0  0  0
 22 17  1  0  0  0  0
 22 21  1  0  0  0  0
 23 22  2  0  0  0  0
 24 15  2  0  0  0  0
 24 23  1  0  0  0  0
 29 21  1  0  0  0  0
 30 23  1  0  0  0  0
 31 32  1  6  0  0  0
 31  1  1  0  0  0  0
 31 33  1  0  0  0  0
 33 35  1  0  0  0  0
 34 33  1  0  0  0  0
 36 33  1  0  0  0  0
 37 31  1  0  0  0  0
 38 37  1  0  0  0  0
 39 38  2  0  0  0  0
 40 39  1  0  0  0  0
 41 40  2  0  0  0  0
 41 42  1  0  0  0  0
 42 38  1  0  0  0  0
 43 41  1  0  0  0  0
 44 42  1  0  0  0  0
 44 46  1  0  0  0  0
 44 45  1  0  0  0  0
 47 44  1  0  0  0  0
M  END
>  <MODEL>
2

>  <REMARK>
 VINA RESULT:    -7.774      3.541      9.307
 INTER + INTRA:         -11.049
 INTER:                 -10.589
 INTRA:                  -0.460
 UNBOUND:                -0.548
  Name = 
  7 active torsions:
  status: ('A' for Active; 'I' for Inactive)
    1  A    between atoms: C_1  and  C_2
    2  A    between atoms: C_2  and  C_3
    3  A    between atoms: C_2  and  S_22
    4  A    between atoms: C_7  and  N_9
    5  A    between atoms: C_10  and  C_11
    6  A    between atoms: S_22  and  C_23
    7  A    between atoms: N_27  and  C_28
                            x       y       z     vdW  Elec       q    Type
                         _______ _______ _______ _____ _____    ______ ____

>  <TORSDO>
F 7

$$$$
=
 OpenBabel07192307433D

 47 50  0  0  1  0  0  0  0  0999 V2000
    4.3290    4.7770   16.8750 C   0  0  0  0  0  0  0  0  0  0  0  0
    3.6980    3.5310   17.0000 C   0  0  0  0  0  0  0  0  0  0  0  0
    2.5090    3.4050   17.7160 C   0  0  0  0  0  0  0  0  0  0  0  0
    1.9260    4.5240   18.3160 C   0  0  0  0  0  0  0  0  0  0  0  0
    2.5260    5.7760   18.2020 C   0  0  0  0  0  0  0  0  0  0  0  0
    3.7230    5.8940   17.4810 C   0  0  0  0  0  0  0  0  0  0  0  0
    4.1290    2.6430   16.5380 H   0  0  0  0  0  0  0  0  0  0  0  0
    2.0290    2.4350   17.8080 H   0  0  0  0  0  0  0  0  0  0  0  0
    1.0000    4.3840   18.8650 H   0  0  0  0  0  0  0  0  0  0  0  0
    4.1880    6.8710   17.3790 H   0  0  0  0  0  0  0  0  0  0  0  0
    2.0020    6.9490   18.7710 N   0  0  0  0  0  0  0  0  0  0  0  0
    2.1330    8.2520   18.3310 C   0  0  0  0  0  0  0  0  0  0  0  0
    2.7430    8.6470   17.3450 O   0  0  0  0  0  0  0  0  0  0  0  0
    1.4480    6.8560   19.6200 H   0  0  0  0  0  0  0  0  0  0  0  0
    1.4170    9.2340   19.2130 C   0  0  0  0  0  0  0  0  0  0  0  0
    0.9060    8.8230   20.4390 C   0  0  0  0  0  0  0  0  0  0  0  0
    0.2460    9.7630   21.2370 C   0  0  0  0  0  0  0  0  0  0  0  0
   -0.2940    9.4200   22.4870 C   0  0  0  0  0  0  0  0  0  0  0  0
   -0.9490   10.3770   23.2650 C   0  0  0  0  0  0  0  0  0  0  0  0
   -1.0710   11.6860   22.8060 C   0  0  0  0  0  0  0  0  0  0  0  0
   -0.5390   12.0440   21.5660 C   0  0  0  0  0  0  0  0  0  0  0  0
    0.1210   11.0890   20.7740 C   0  0  0  0  0  0  0  0  0  0  0  0
    0.6720   11.3920   19.5260 C   0  0  0  0  0  0  0  0  0  0  0  0
    1.3140   10.5050   18.7310 N   0  0  0  0  0  0  0  0  0  0  0  0
    1.0250    7.7920   20.7590 H   0  0  0  0  0  0  0  0  0  0  0  0
   -0.2110    8.4030   22.8650 H   0  0  0  0  0  0  0  0  0  0  0  0
   -1.3640   10.0990   24.2310 H   0  0  0  0  0  0  0  0  0  0  0  0
   -1.5810   12.4300   23.4150 H   0  0  0  0  0  0  0  0  0  0  0  0
   -0.6440   13.0710   21.2240 H   0  0  0  0  0  0  0  0  0  0  0  0
    0.6070   12.3980   19.1170 H   0  0  0  0  0  0  0  0  0  0  0  0
    5.6240    4.8870   16.0830 C   0  0  2  0  0  0  0  0  0  0  0  0
    5.7000    5.9130   15.7040 H   0  0  0  0  0  0  0  0  0  0  0  0
    5.6500    3.9410   14.8790 C   0  0  0  0  0  0  0  0  0  0  0  0
    5.3940    2.9150   15.1670 H   0  0  0  0  0  0  0  0  0  0  0  0
    4.9550    4.2450   14.0880 H   0  0  0  0  0  0  0  0  0  0  0  0
    6.6530    3.9110   14.4370 H   0  0  0  0  0  0  0  0  0  0  0  0
    7.0580    4.5710   17.1850 S   0  0  0  0  0  0  0  0  0  0  0  0
    7.5360    6.1780   17.5990 C   0  0  0  0  0  0  0  0  0  0  0  0
    7.4820    7.2450   16.8360 N   0  0  0  0  0  0  0  0  0  0  0  0
    7.9640    8.3080   17.5670 N   0  0  0  0  0  0  0  0  0  0  0  0
    8.2920    7.8550   18.7550 C   0  0  0  0  0  0  0  0  0  0  0  0
    8.0410    6.5180   18.8220 N   0  0  0  0  0  0  0  0  0  0  0  0
    8.7020    8.4400   19.5680 H   0  0  0  0  0  0  0  0  0  0  0  0
    8.2650    5.6710   19.9610 C   0  0  0  0  0  0  0  0  0  0  0  0
    9.1800    5.0970   19.8000 H   0  0  0  0  0  0  0  0  0  0  0  0
    7.4210    4.9850   20.0780 H   0  0  0  0  0  0  0  0  0  0  0  0
    8.3490    6.2970   20.8530 H   0  0  0  0  0  0  0  0  0  0  0  0
  1  2  2  0  0  0  0
  1  6  1  0  0  0  0
  2  3  1  0  0  0  0
  3  8  1  0  0  0  0
  3  4  2  0  0  0  0
  4  9  1  0  0  0  0
  5  4  1  0  0  0  0
  5 11  1  0  0  0  0
  6  5  2  0  0  0  0
  7  2  1  0  0  0  0
 10  6  1  0  0  0  0
 11 14  1  0  0  0  0
 12 11  1  0  0  0  0
 12 15  1  0  0  0  0
 13 12  2  0  0  0  0
 15 16  1  0  0  0  0
 16 25  1  0  0  0  0
 16 17  2  0  0  0  0
 17 18  1  0  0  0  0
 18 26  1  0  0  0  0
 18 19  2  0  0  0  0
 19 27  1  0  0  0  0
 20 19  1  0  0  0  0
 20 28  1  0  0  0  0
 21 20  2  0  0  0  0
 22 17  1  0  0  0  0
 22 21  1  0  0  0  0
 23 22  2  0  0  0  0
 24 15  2  0  0  0  0
 24 23  1  0  0  0  0
 29 21  1  0  0  0  0
 30 23  1  0  0  0  0
 31 32  1  6  0  0  0
 31  1  1  0  0  0  0
 31 37  1  0  0  0  0
 33 34  1  0  0  0  0
 33 31  1  0  0  0  0
 35 33  1  0  0  0  0
 36 33  1  0  0  0  0
 37 38  1  0  0  0  0
 38 42  1  0  0  0  0
 39 40  1  0  0  0  0
 39 38  2  0  0  0  0
 40 41  2  0  0  0  0
 41 42  1  0  0  0  0
 41 43  1  0  0  0  0
 42 44  1  0  0  0  0
 44 46  1  0  0  0  0
 44 47  1  0  0  0  0
 45 44  1  0  0  0  0
M  END
>  <MODEL>
3

>  <REMARK>
 VINA RESULT:    -7.673      3.620      9.294
 INTER + INTRA:         -10.913
 INTER:                 -10.454
 INTRA:                  -0.460
 UNBOUND:                -0.548
  Name = 
  7 active torsions:
  status: ('A' for Active; 'I' for Inactive)
    1  A    between atoms: C_1  and  C_2
    2  A    between atoms: C_2  and  C_3
    3  A    between atoms: C_2  and  S_22
    4  A    between atoms: C_7  and  N_9
    5  A    between atoms: C_10  and  C_11
    6  A    between atoms: S_22  and  C_23
    7  A    between atoms: N_27  and  C_28
                            x       y       z     vdW  Elec       q    Type
                         _______ _______ _______ _____ _____    ______ ____

>  <TORSDO>
F 7

$$$$
=
 OpenBabel07192307433D

 47 50  0  0  1  0  0  0  0  0999 V2000
    5.5350    4.8690   19.0230 C   0  0  0  0  0  0  0  0  0  0  0  0
    4.9890    3.5790   18.9720 C   0  0  0  0  0  0  0  0  0  0  0  0
    3.6260    3.3750   19.1800 C   0  0  0  0  0  0  0  0  0  0  0  0
    2.7820    4.4590   19.4360 C   0  0  0  0  0  0  0  0  0  0  0  0
    3.2950    5.7540   19.4840 C   0  0  0  0  0  0  0  0  0  0  0  0
    4.6680    5.9500   19.2750 C   0  0  0  0  0  0  0  0  0  0  0  0
    5.6240    2.7170   18.7700 H   0  0  0  0  0  0  0  0  0  0  0  0
    3.2130    2.3710   19.1410 H   0  0  0  0  0  0  0  0  0  0  0  0
    1.7270    4.2580   19.5930 H   0  0  0  0  0  0  0  0  0  0  0  0
    5.0700    6.9600   19.2990 H   0  0  0  0  0  0  0  0  0  0  0  0
    2.5140    6.8950   19.7310 N   0  0  0  0  0  0  0  0  0  0  0  0
    2.2030    7.9280   18.8680 C   0  0  0  0  0  0  0  0  0  0  0  0
    2.5550    8.0560   17.7020 O   0  0  0  0  0  0  0  0  0  0  0  0
    2.1100    7.0000   20.6600 H   0  0  0  0  0  0  0  0  0  0  0  0
    1.3320    8.9720   19.5070 C   0  0  0  0  0  0  0  0  0  0  0  0
    0.9010    8.8090   20.8180 C   0  0  0  0  0  0  0  0  0  0  0  0
    0.0910    9.7990   21.3830 C   0  0  0  0  0  0  0  0  0  0  0  0
   -0.3800    9.7030   22.7020 C   0  0  0  0  0  0  0  0  0  0  0  0
   -1.1870   10.7060   23.2440 C   0  0  0  0  0  0  0  0  0  0  0  0
   -1.5330   11.8160   22.4770 C   0  0  0  0  0  0  0  0  0  0  0  0
   -1.0720   11.9270   21.1630 C   0  0  0  0  0  0  0  0  0  0  0  0
   -0.2590   10.9230   20.6080 C   0  0  0  0  0  0  0  0  0  0  0  0
    0.2290   10.9850   19.3000 C   0  0  0  0  0  0  0  0  0  0  0  0
    1.0120   10.0420   18.7250 N   0  0  0  0  0  0  0  0  0  0  0  0
    1.1940    7.9280   21.3820 H   0  0  0  0  0  0  0  0  0  0  0  0
   -0.1230    8.8440   23.3200 H   0  0  0  0  0  0  0  0  0  0  0  0
   -1.5470   10.6200   24.2670 H   0  0  0  0  0  0  0  0  0  0  0  0
   -2.1610   12.5950   22.9010 H   0  0  0  0  0  0  0  0  0  0  0  0
   -1.3510   12.8010   20.5790 H   0  0  0  0  0  0  0  0  0  0  0  0
   -0.0070   11.8280   18.6540 H   0  0  0  0  0  0  0  0  0  0  0  0
    7.0250    5.0640   18.7870 C   0  0  2  0  0  0  0  0  0  0  0  0
    7.4530    4.0910   18.5170 H   0  0  0  0  0  0  0  0  0  0  0  0
    7.7510    5.5640   20.0390 C   0  0  0  0  0  0  0  0  0  0  0  0
    8.8300    5.6520   19.8720 H   0  0  0  0  0  0  0  0  0  0  0  0
    7.3870    6.5410   20.3760 H   0  0  0  0  0  0  0  0  0  0  0  0
    7.6100    4.8610   20.8690 H   0  0  0  0  0  0  0  0  0  0  0  0
    7.2880    6.2180   17.3820 S   0  0  0  0  0  0  0  0  0  0  0  0
    6.6870    5.2920   16.0560 C   0  0  0  0  0  0  0  0  0  0  0  0
    7.1640    4.1570   15.5980 N   0  0  0  0  0  0  0  0  0  0  0  0
    6.3810    3.7730   14.5320 N   0  0  0  0  0  0  0  0  0  0  0  0
    5.4490    4.6850   14.3760 C   0  0  0  0  0  0  0  0  0  0  0  0
    5.6020    5.6620   15.3140 N   0  0  0  0  0  0  0  0  0  0  0  0
    4.6710    4.6780   13.6250 H   0  0  0  0  0  0  0  0  0  0  0  0
    4.7710    6.8240   15.4670 C   0  0  0  0  0  0  0  0  0  0  0  0
    3.8780    6.5470   16.0320 H   0  0  0  0  0  0  0  0  0  0  0  0
    4.4770    7.1950   14.4810 H   0  0  0  0  0  0  0  0  0  0  0  0
    5.3400    7.5970   15.9900 H   0  0  0  0  0  0  0  0  0  0  0  0
  1  6  1  0  0  0  0
  2  1  2  0  0  0  0
  2  3  1  0  0  0  0
  3  4  2  0  0  0  0
  4  5  1  0  0  0  0
  4  9  1  0  0  0  0
  5 11  1  0  0  0  0
  6 10  1  0  0  0  0
  6  5  2  0  0  0  0
  7  2  1  0  0  0  0
  8  3  1  0  0  0  0
 11 14  1  0  0  0  0
 12 15  1  0  0  0  0
 12 11  1  0  0  0  0
 13 12  2  0  0  0  0
 15 16  1  0  0  0  0
 16 25  1  0  0  0  0
 16 17  2  0  0  0  0
 17 18  1  0  0  0  0
 18 19  2  0  0  0  0
 18 26  1  0  0  0  0
 19 27  1  0  0  0  0
 20 28  1  0  0  0  0
 20 19  1  0  0  0  0
 21 20  2  0  0  0  0
 22 21  1  0  0  0  0
 22 17  1  0  0  0  0
 23 22  2  0  0  0  0
 24 23  1  0  0  0  0
 24 15  2  0  0  0  0
 29 21  1  0  0  0  0
 30 23  1  0  0  0  0
 31 32  1  6  0  0  0
 31  1  1  0  0  0  0
 31 33  1  0  0  0  0
 33 35  1  0  0  0  0
 33 36  1  0  0  0  0
 34 33  1  0  0  0  0
 37 31  1  0  0  0  0
 38 37  1  0  0  0  0
 39 38  2  0  0  0  0
 40 39  1  0  0  0  0
 41 40  2  0  0  0  0
 41 42  1  0  0  0  0
 42 44  1  0  0  0  0
 42 38  1  0  0  0  0
 43 41  1  0  0  0  0
 44 47  1  0  0  0  0
 44 45  1  0  0  0  0
 46 44  1  0  0  0  0
M  END
>  <MODEL>
4

>  <REMARK>
 VINA RESULT:    -7.573      3.427      8.908
 INTER + INTRA:         -10.778
 INTER:                  -9.879
 INTRA:                  -0.900
 UNBOUND:                -0.548
  Name = 
  7 active torsions:
  status: ('A' for Active; 'I' for Inactive)
    1  A    between atoms: C_1  and  C_2
    2  A    between atoms: C_2  and  C_3
    3  A    between atoms: C_2  and  S_22
    4  A    between atoms: C_7  and  N_9
    5  A    between atoms: C_10  and  C_11
    6  A    between atoms: S_22  and  C_23
    7  A    between atoms: N_27  and  C_28
                            x       y       z     vdW  Elec       q    Type
                         _______ _______ _______ _____ _____    ______ ____

>  <TORSDO>
F 7

$$$$
=
 OpenBabel07192307433D

 47 50  0  0  1  0  0  0  0  0999 V2000
   -0.2210   11.3370   21.2300 C   0  0  0  0  0  0  0  0  0  0  0  0
   -0.6280   11.0100   22.5320 C   0  0  0  0  0  0  0  0  0  0  0  0
   -0.3270    9.7630   23.0780 C   0  0  0  0  0  0  0  0  0  0  0  0
    0.3930    8.8230   22.3360 C   0  0  0  0  0  0  0  0  0  0  0  0
    0.8180    9.1240   21.0440 C   0  0  0  0  0  0  0  0  0  0  0  0
    0.5100   10.3800   20.5000 C   0  0  0  0  0  0  0  0  0  0  0  0
   -1.1860   11.7260   23.1330 H   0  0  0  0  0  0  0  0  0  0  0  0
   -0.6490    9.5190   24.0870 H   0  0  0  0  0  0  0  0  0  0  0  0
    0.6070    7.8650   22.7970 H   0  0  0  0  0  0  0  0  0  0  0  0
    0.8500   10.6230   19.4970 H   0  0  0  0  0  0  0  0  0  0  0  0
    1.5480    8.2370   20.2350 N   0  0  0  0  0  0  0  0  0  0  0  0
    1.9230    8.3860   18.9140 C   0  0  0  0  0  0  0  0  0  0  0  0
    1.6850    9.3350   18.1750 O   0  0  0  0  0  0  0  0  0  0  0  0
    1.8560    7.3610   20.6520 H   0  0  0  0  0  0  0  0  0  0  0  0
    2.7060    7.2130   18.3990 C   0  0  0  0  0  0  0  0  0  0  0  0
    3.6410    7.3930   17.3860 C   0  0  0  0  0  0  0  0  0  0  0  0
    4.3540    6.2800   16.9300 C   0  0  0  0  0  0  0  0  0  0  0  0
    5.3150    6.3860   15.9110 C   0  0  0  0  0  0  0  0  0  0  0  0
    6.0150    5.2590   15.4740 C   0  0  0  0  0  0  0  0  0  0  0  0
    5.7650    4.0150   16.0470 C   0  0  0  0  0  0  0  0  0  0  0  0
    4.8140    3.8920   17.0620 C   0  0  0  0  0  0  0  0  0  0  0  0
    4.1030    5.0200   17.5100 C   0  0  0  0  0  0  0  0  0  0  0  0
    3.1400    4.9530   18.5210 C   0  0  0  0  0  0  0  0  0  0  0  0
    2.4340    6.0110   18.9820 N   0  0  0  0  0  0  0  0  0  0  0  0
    3.8060    8.3810   16.9670 H   0  0  0  0  0  0  0  0  0  0  0  0
    5.5260    7.3480   15.4490 H   0  0  0  0  0  0  0  0  0  0  0  0
    6.7560    5.3540   14.6830 H   0  0  0  0  0  0  0  0  0  0  0  0
    6.3110    3.1390   15.7040 H   0  0  0  0  0  0  0  0  0  0  0  0
    4.6310    2.9130   17.4980 H   0  0  0  0  0  0  0  0  0  0  0  0
    2.9040    4.0080   19.0060 H   0  0  0  0  0  0  0  0  0  0  0  0
   -0.5580   12.7070   20.6600 C   0  0  2  0  0  0  0  0  0  0  0  0
   -0.0900   12.7830   19.6710 H   0  0  0  0  0  0  0  0  0  0  0  0
   -0.0130   13.8460   21.5260 C   0  0  0  0  0  0  0  0  0  0  0  0
   -0.7590   14.1960   22.2480 H   0  0  0  0  0  0  0  0  0  0  0  0
    0.8820   13.5580   22.0880 H   0  0  0  0  0  0  0  0  0  0  0  0
    0.2590   14.7050   20.9010 H   0  0  0  0  0  0  0  0  0  0  0  0
   -2.3760   12.8640   20.4510 S   0  0  0  0  0  0  0  0  0  0  0  0
   -2.6140   12.1140   18.9150 C   0  0  0  0  0  0  0  0  0  0  0  0
   -1.6950   11.8050   18.0300 N   0  0  0  0  0  0  0  0  0  0  0  0
   -2.3270   11.2260   16.9520 N   0  0  0  0  0  0  0  0  0  0  0  0
   -3.6130   11.1960   17.2170 C   0  0  0  0  0  0  0  0  0  0  0  0
   -3.8410   11.7450   18.4430 N   0  0  0  0  0  0  0  0  0  0  0  0
   -4.3860   10.8000   16.5730 H   0  0  0  0  0  0  0  0  0  0  0  0
   -5.1210   11.8850   19.0820 C   0  0  0  0  0  0  0  0  0  0  0  0
   -5.4630   10.8990   19.4070 H   0  0  0  0  0  0  0  0  0  0  0  0
   -5.8400   12.3020   18.3710 H   0  0  0  0  0  0  0  0  0  0  0  0
   -5.0180   12.5620   19.9330 H   0  0  0  0  0  0  0  0  0  0  0  0
  1  2  1  0  0  0  0
  2  3  2  0  0  0  0
  2  7  1  0  0  0  0
  3  8  1  0  0  0  0
  4  9  1  0  0  0  0
  4  3  1  0  0  0  0
  5  4  2  0  0  0  0
  6  5  1  0  0  0  0
  6  1  2  0  0  0  0
 10  6  1  0  0  0  0
 11 14  1  0  0  0  0
 11  5  1  0  0  0  0
 12 11  1  0  0  0  0
 13 12  2  0  0  0  0
 15 12  1  0  0  0  0
 15 24  1  0  0  0  0
 16 15  2  0  0  0  0
 17 16  1  0  0  0  0
 17 22  1  0  0  0  0
 18 17  2  0  0  0  0
 19 18  1  0  0  0  0
 19 20  2  0  0  0  0
 20 21  1  0  0  0  0
 21 29  1  0  0  0  0
 21 22  2  0  0  0  0
 22 23  1  0  0  0  0
 23 24  2  0  0  0  0
 23 30  1  0  0  0  0
 25 16  1  0  0  0  0
 26 18  1  0  0  0  0
 27 19  1  0  0  0  0
 28 20  1  0  0  0  0
 31 32  1  6  0  0  0
 31  1  1  0  0  0  0
 31 33  1  0  0  0  0
 33 35  1  0  0  0  0
 33 34  1  0  0  0  0
 36 33  1  0  0  0  0
 37 31  1  0  0  0  0
 38 37  1  0  0  0  0
 39 38  2  0  0  0  0
 40 41  2  0  0  0  0
 40 39  1  0  0  0  0
 41 42  1  0  0  0  0
 42 38  1  0  0  0  0
 42 44  1  0  0  0  0
 43 41  1  0  0  0  0
 44 45  1  0  0  0  0
 44 47  1  0  0  0  0
 46 44  1  0  0  0  0
M  END
>  <MODEL>
5

>  <REMARK>
 VINA RESULT:    -7.502      1.507      1.695
 INTER + INTRA:         -10.682
 INTER:                 -10.429
 INTRA:                  -0.253
 UNBOUND:                -0.548
  Name = 
  7 active torsions:
  status: ('A' for Active; 'I' for Inactive)
    1  A    between atoms: C_1  and  C_2
    2  A    between atoms: C_2  and  C_3
    3  A    between atoms: C_2  and  S_22
    4  A    between atoms: C_7  and  N_9
    5  A    between atoms: C_10  and  C_11
    6  A    between atoms: S_22  and  C_23
    7  A    between atoms: N_27  and  C_28
                            x       y       z     vdW  Elec       q    Type
                         _______ _______ _______ _____ _____    ______ ____

>  <TORSDO>
F 7

$$$$
=
 OpenBabel07192307433D

 47 50  0  0  1  0  0  0  0  0999 V2000
   -0.1310   10.6110   20.5050 C   0  0  0  0  0  0  0  0  0  0  0  0
   -0.2440   10.5460   21.9020 C   0  0  0  0  0  0  0  0  0  0  0  0
    0.3700    9.5190   22.6170 C   0  0  0  0  0  0  0  0  0  0  0  0
    1.1130    8.5410   21.9510 C   0  0  0  0  0  0  0  0  0  0  0  0
    1.2480    8.5850   20.5640 C   0  0  0  0  0  0  0  0  0  0  0  0
    0.6270    9.6200   19.8510 C   0  0  0  0  0  0  0  0  0  0  0  0
   -0.8130   11.2990   22.4460 H   0  0  0  0  0  0  0  0  0  0  0  0
    0.2750    9.4770   23.6990 H   0  0  0  0  0  0  0  0  0  0  0  0
    1.5750    7.7590   22.5440 H   0  0  0  0  0  0  0  0  0  0  0  0
    0.7410    9.6650   18.7710 H   0  0  0  0  0  0  0  0  0  0  0  0
    1.9800    7.6440   19.8210 N   0  0  0  0  0  0  0  0  0  0  0  0
    2.0410    6.2740   19.9890 C   0  0  0  0  0  0  0  0  0  0  0  0
    1.4610    5.6010   20.8320 O   0  0  0  0  0  0  0  0  0  0  0  0
    2.5500    7.9890   19.0510 H   0  0  0  0  0  0  0  0  0  0  0  0
    2.9370    5.6080   18.9840 C   0  0  0  0  0  0  0  0  0  0  0  0
    3.5480    6.3630   17.9900 C   0  0  0  0  0  0  0  0  0  0  0  0
    4.3770    5.7120   17.0710 C   0  0  0  0  0  0  0  0  0  0  0  0
    5.0280    6.4110   16.0410 C   0  0  0  0  0  0  0  0  0  0  0  0
    5.8510    5.7370   15.1360 C   0  0  0  0  0  0  0  0  0  0  0  0
    6.0350    4.3620   15.2470 C   0  0  0  0  0  0  0  0  0  0  0  0
    5.3950    3.6520   16.2660 C   0  0  0  0  0  0  0  0  0  0  0  0
    4.5640    4.3190   17.1820 C   0  0  0  0  0  0  0  0  0  0  0  0
    3.9000    3.6590   18.2200 C   0  0  0  0  0  0  0  0  0  0  0  0
    3.0910    4.2610   19.1230 N   0  0  0  0  0  0  0  0  0  0  0  0
    3.3780    7.4340   17.9400 H   0  0  0  0  0  0  0  0  0  0  0  0
    4.8980    7.4860   15.9350 H   0  0  0  0  0  0  0  0  0  0  0  0
    6.3500    6.2890   14.3420 H   0  0  0  0  0  0  0  0  0  0  0  0
    6.6770    3.8400   14.5410 H   0  0  0  0  0  0  0  0  0  0  0  0
    5.5500    2.5780   16.3380 H   0  0  0  0  0  0  0  0  0  0  0  0
    4.0060    2.5850   18.3560 H   0  0  0  0  0  0  0  0  0  0  0  0
   -0.8060   11.7450   19.7490 C   0  0  2  0  0  0  0  0  0  0  0  0
   -1.6850   11.3330   19.2390 H   0  0  0  0  0  0  0  0  0  0  0  0
    0.1080   12.3590   18.6850 C   0  0  0  0  0  0  0  0  0  0  0  0
    1.1370   11.9950   18.7800 H   0  0  0  0  0  0  0  0  0  0  0  0
   -0.2270   12.1420   17.6640 H   0  0  0  0  0  0  0  0  0  0  0  0
    0.1410   13.4500   18.7910 H   0  0  0  0  0  0  0  0  0  0  0  0
   -1.3760   13.0300   20.9320 S   0  0  0  0  0  0  0  0  0  0  0  0
   -3.0880   12.8120   20.8820 C   0  0  0  0  0  0  0  0  0  0  0  0
   -3.8340   12.6210   19.8190 N   0  0  0  0  0  0  0  0  0  0  0  0
   -5.1400   12.4980   20.2390 N   0  0  0  0  0  0  0  0  0  0  0  0
   -5.1470   12.6130   21.5470 C   0  0  0  0  0  0  0  0  0  0  0  0
   -3.8760   12.8120   21.9960 N   0  0  0  0  0  0  0  0  0  0  0  0
   -6.0180   12.5610   22.1860 H   0  0  0  0  0  0  0  0  0  0  0  0
   -3.4810   12.9780   23.3680 C   0  0  0  0  0  0  0  0  0  0  0  0
   -4.3750   12.9810   23.9960 H   0  0  0  0  0  0  0  0  0  0  0  0
   -2.9530   13.9290   23.4840 H   0  0  0  0  0  0  0  0  0  0  0  0
   -2.8140   12.1570   23.6440 H   0  0  0  0  0  0  0  0  0  0  0  0
  1  2  1  0  0  0  0
  2  7  1  0  0  0  0
  2  3  2  0  0  0  0
  3  8  1  0  0  0  0
  4  9  1  0  0  0  0
  4  3  1  0  0  0  0
  5  4  2  0  0  0  0
  6  1  2  0  0  0  0
  6  5  1  0  0  0  0
 10  6  1  0  0  0  0
 11 12  1  0  0  0  0
 11  5  1  0  0  0  0
 12 13  2  0  0  0  0
 14 11  1  0  0  0  0
 15 24  1  0  0  0  0
 15 12  1  0  0  0  0
 16 15  2  0  0  0  0
 17 22  1  0  0  0  0
 17 16  1  0  0  0  0
 18 17  2  0  0  0  0
 19 20  2  0  0  0  0
 19 18  1  0  0  0  0
 20 21  1  0  0  0  0
 21 29  1  0  0  0  0
 21 22  2  0  0  0  0
 22 23  1  0  0  0  0
 23 30  1  0  0  0  0
 23 24  2  0  0  0  0
 25 16  1  0  0  0  0
 26 18  1  0  0  0  0
 27 19  1  0  0  0  0
 28 20  1  0  0  0  0
 31 32  1  6  0  0  0
 31  1  1  0  0  0  0
 31 37  1  0  0  0  0
 33 34  1  0  0  0  0
 33 36  1  0  0  0  0
 33 31  1  0  0  0  0
 35 33  1  0  0  0  0
 38 37  1  0  0  0  0
 38 42  1  0  0  0  0
 39 40  1  0  0  0  0
 39 38  2  0  0  0  0
 40 41  2  0  0  0  0
 41 42  1  0  0  0  0
 41 43  1  0  0  0  0
 42 44  1  0  0  0  0
 44 46  1  0  0  0  0
 44 47  1  0  0  0  0
 44 45  1  0  0  0  0
M  END
>  <MODEL>
6

>  <REMARK>
 VINA RESULT:    -7.490      2.136      2.666
 INTER + INTRA:         -10.666
 INTER:                 -10.133
 INTRA:                  -0.533
 UNBOUND:                -0.548
  Name = 
  7 active torsions:
  status: ('A' for Active; 'I' for Inactive)
    1  A    between atoms: C_1  and  C_2
    2  A    between atoms: C_2  and  C_3
    3  A    between atoms: C_2  and  S_22
    4  A    between atoms: C_7  and  N_9
    5  A    between atoms: C_10  and  C_11
    6  A    between atoms: S_22  and  C_23
    7  A    between atoms: N_27  and  C_28
                            x       y       z     vdW  Elec       q    Type
                         _______ _______ _______ _____ _____    ______ ____

>  <TORSDO>
F 7

$$$$
=
 OpenBabel07192307433D

 47 50  0  0  1  0  0  0  0  0999 V2000
    5.4840    4.8630   18.7970 C   0  0  0  0  0  0  0  0  0  0  0  0
    4.9120    3.6650   18.3440 C   0  0  0  0  0  0  0  0  0  0  0  0
    3.5370    3.4560   18.4350 C   0  0  0  0  0  0  0  0  0  0  0  0
    2.7080    4.4420   18.9760 C   0  0  0  0  0  0  0  0  0  0  0  0
    3.2480    5.6450   19.4260 C   0  0  0  0  0  0  0  0  0  0  0  0
    4.6330    5.8480   19.3320 C   0  0  0  0  0  0  0  0  0  0  0  0
    5.5350    2.8820   17.9140 H   0  0  0  0  0  0  0  0  0  0  0  0
    3.1030    2.5240   18.0830 H   0  0  0  0  0  0  0  0  0  0  0  0
    1.6430    4.2400   19.0290 H   0  0  0  0  0  0  0  0  0  0  0  0
    5.0560    6.7900   19.6710 H   0  0  0  0  0  0  0  0  0  0  0  0
    2.4830    6.6870   19.9780 N   0  0  0  0  0  0  0  0  0  0  0  0
    2.0710    7.8610   19.3790 C   0  0  0  0  0  0  0  0  0  0  0  0
    2.2970    8.2330   18.2330 O   0  0  0  0  0  0  0  0  0  0  0  0
    2.1780    6.5890   20.9440 H   0  0  0  0  0  0  0  0  0  0  0  0
    1.2590    8.7250   20.3010 C   0  0  0  0  0  0  0  0  0  0  0  0
    0.5000    9.7700   19.7860 C   0  0  0  0  0  0  0  0  0  0  0  0
   -0.2450   10.5550   20.6710 C   0  0  0  0  0  0  0  0  0  0  0  0
   -1.0350   11.6260   20.2220 C   0  0  0  0  0  0  0  0  0  0  0  0
   -1.7710   12.3940   21.1270 C   0  0  0  0  0  0  0  0  0  0  0  0
   -1.7280   12.1040   22.4880 C   0  0  0  0  0  0  0  0  0  0  0  0
   -0.9480   11.0420   22.9510 C   0  0  0  0  0  0  0  0  0  0  0  0
   -0.2030   10.2620   22.0490 C   0  0  0  0  0  0  0  0  0  0  0  0
    0.5940    9.1890   22.4590 C   0  0  0  0  0  0  0  0  0  0  0  0
    1.3270    8.4130   21.6260 N   0  0  0  0  0  0  0  0  0  0  0  0
    0.4940    9.9610   18.7170 H   0  0  0  0  0  0  0  0  0  0  0  0
   -1.0830   11.8710   19.1630 H   0  0  0  0  0  0  0  0  0  0  0  0
   -2.3780   13.2210   20.7660 H   0  0  0  0  0  0  0  0  0  0  0  0
   -2.3020   12.7040   23.1900 H   0  0  0  0  0  0  0  0  0  0  0  0
   -0.9260   10.8300   24.0170 H   0  0  0  0  0  0  0  0  0  0  0  0
    0.6660    8.9150   23.5090 H   0  0  0  0  0  0  0  0  0  0  0  0
    6.9880    5.0680   18.6800 C   0  0  2  0  0  0  0  0  0  0  0  0
    7.4410    4.0990   18.4370 H   0  0  0  0  0  0  0  0  0  0  0  0
    7.6100    5.5600   19.9900 C   0  0  0  0  0  0  0  0  0  0  0  0
    6.8450    5.8960   20.6980 H   0  0  0  0  0  0  0  0  0  0  0  0
    8.2090    4.7900   20.4880 H   0  0  0  0  0  0  0  0  0  0  0  0
    8.2710    6.4150   19.8020 H   0  0  0  0  0  0  0  0  0  0  0  0
    7.3530    6.2350   17.3100 S   0  0  0  0  0  0  0  0  0  0  0  0
    6.7240    5.3800   15.9490 C   0  0  0  0  0  0  0  0  0  0  0  0
    7.2460    4.3290   15.3600 N   0  0  0  0  0  0  0  0  0  0  0  0
    6.4170    3.9750   14.3190 N   0  0  0  0  0  0  0  0  0  0  0  0
    5.4110    4.8200   14.3100 C   0  0  0  0  0  0  0  0  0  0  0  0
    5.5620    5.7230   15.3200 N   0  0  0  0  0  0  0  0  0  0  0  0
    4.5820    4.8160   13.6160 H   0  0  0  0  0  0  0  0  0  0  0  0
    4.6620    6.7990   15.6330 C   0  0  0  0  0  0  0  0  0  0  0  0
    5.1650    7.7490   15.4390 H   0  0  0  0  0  0  0  0  0  0  0  0
    4.3830    6.7450   16.6900 H   0  0  0  0  0  0  0  0  0  0  0  0
    3.7650    6.6990   15.0160 H   0  0  0  0  0  0  0  0  0  0  0  0
  1  6  1  0  0  0  0
  2  3  1  0  0  0  0
  2  1  2  0  0  0  0
  3  4  2  0  0  0  0
  4  9  1  0  0  0  0
  4  5  1  0  0  0  0
  5 11  1  0  0  0  0
  6  5  2  0  0  0  0
  6 10  1  0  0  0  0
  7  2  1  0  0  0  0
  8  3  1  0  0  0  0
 11 14  1  0  0  0  0
 12 11  1  0  0  0  0
 12 15  1  0  0  0  0
 13 12  2  0  0  0  0
 15 24  1  0  0  0  0
 16 15  2  0  0  0  0
 16 17  1  0  0  0  0
 17 22  1  0  0  0  0
 18 17  2  0  0  0  0
 18 19  1  0  0  0  0
 19 20  2  0  0  0  0
 20 21  1  0  0  0  0
 20 28  1  0  0  0  0
 21 29  1  0  0  0  0
 22 23  1  0  0  0  0
 22 21  2  0  0  0  0
 23 30  1  0  0  0  0
 24 23  2  0  0  0  0
 25 16  1  0  0  0  0
 26 18  1  0  0  0  0
 27 19  1  0  0  0  0
 31 32  1  6  0  0  0
 31  1  1  0  0  0  0
 31 33  1  0  0  0  0
 33 35  1  0  0  0  0
 33 34  1  0  0  0  0
 36 33  1  0  0  0  0
 37 31  1  0  0  0  0
 38 37  1  0  0  0  0
 39 38  2  0  0  0  0
 40 39  1  0  0  0  0
 41 40  2  0  0  0  0
 41 42  1  0  0  0  0
 42 44  1  0  0  0  0
 42 38  1  0  0  0  0
 43 41  1  0  0  0  0
 44 46  1  0  0  0  0
 45 44  1  0  0  0  0
 47 44  1  0  0  0  0
M  END
>  <MODEL>
7

>  <REMARK>
 VINA RESULT:    -7.441      3.787      8.900
 INTER + INTRA:         -10.599
 INTER:                  -9.680
 INTRA:                  -0.920
 UNBOUND:                -0.548
  Name = 
  7 active torsions:
  status: ('A' for Active; 'I' for Inactive)
    1  A    between atoms: C_1  and  C_2
    2  A    between atoms: C_2  and  C_3
    3  A    between atoms: C_2  and  S_22
    4  A    between atoms: C_7  and  N_9
    5  A    between atoms: C_10  and  C_11
    6  A    between atoms: S_22  and  C_23
    7  A    between atoms: N_27  and  C_28
                            x       y       z     vdW  Elec       q    Type
                         _______ _______ _______ _____ _____    ______ ____

>  <TORSDO>
F 7

$$$$
=
 OpenBabel07192307433D

 47 50  0  0  1  0  0  0  0  0999 V2000
    4.3400    4.7900   16.9030 C   0  0  0  0  0  0  0  0  0  0  0  0
    3.8080    3.4930   16.9200 C   0  0  0  0  0  0  0  0  0  0  0  0
    2.6870    3.1940   17.6940 C   0  0  0  0  0  0  0  0  0  0  0  0
    2.0740    4.1880   18.4600 C   0  0  0  0  0  0  0  0  0  0  0  0
    2.5760    5.4890   18.4560 C   0  0  0  0  0  0  0  0  0  0  0  0
    3.7050    5.7810   17.6770 C   0  0  0  0  0  0  0  0  0  0  0  0
    4.2640    2.7000   16.3280 H   0  0  0  0  0  0  0  0  0  0  0  0
    2.2840    2.1850   17.7010 H   0  0  0  0  0  0  0  0  0  0  0  0
    1.2040    3.9160   19.0480 H   0  0  0  0  0  0  0  0  0  0  0  0
    4.0910    6.7970   17.6610 H   0  0  0  0  0  0  0  0  0  0  0  0
    2.0150    6.5440   19.1940 N   0  0  0  0  0  0  0  0  0  0  0  0
    2.0520    7.8980   18.9230 C   0  0  0  0  0  0  0  0  0  0  0  0
    2.5900    8.4530   17.9730 O   0  0  0  0  0  0  0  0  0  0  0  0
    1.5090    6.3100   20.0460 H   0  0  0  0  0  0  0  0  0  0  0  0
    1.3260    8.7140   19.9550 C   0  0  0  0  0  0  0  0  0  0  0  0
    0.5560    9.8020   19.5640 C   0  0  0  0  0  0  0  0  0  0  0  0
   -0.1070   10.5410   20.5490 C   0  0  0  0  0  0  0  0  0  0  0  0
   -0.9040   11.6520   20.2280 C   0  0  0  0  0  0  0  0  0  0  0  0
   -1.5570   12.3720   21.2310 C   0  0  0  0  0  0  0  0  0  0  0  0
   -1.4230   11.9930   22.5640 C   0  0  0  0  0  0  0  0  0  0  0  0
   -0.6360   10.8900   22.9000 C   0  0  0  0  0  0  0  0  0  0  0  0
    0.0270   10.1580   21.8990 C   0  0  0  0  0  0  0  0  0  0  0  0
    0.8270    9.0470   22.1800 C   0  0  0  0  0  0  0  0  0  0  0  0
    1.4820    8.3150   21.2490 N   0  0  0  0  0  0  0  0  0  0  0  0
    0.4780   10.0640   18.5130 H   0  0  0  0  0  0  0  0  0  0  0  0
   -1.0220   11.9660   19.1930 H   0  0  0  0  0  0  0  0  0  0  0  0
   -2.1700   13.2310   20.9690 H   0  0  0  0  0  0  0  0  0  0  0  0
   -1.9330   12.5560   23.3430 H   0  0  0  0  0  0  0  0  0  0  0  0
   -0.5420   10.6080   23.9470 H   0  0  0  0  0  0  0  0  0  0  0  0
    0.9680    8.7040   23.2030 H   0  0  0  0  0  0  0  0  0  0  0  0
    5.5600    5.0900   16.0460 C   0  0  2  0  0  0  0  0  0  0  0  0
    5.5500    6.1610   15.8090 H   0  0  0  0  0  0  0  0  0  0  0  0
    5.5440    4.3180   14.7230 C   0  0  0  0  0  0  0  0  0  0  0  0
    4.6680    4.5730   14.1180 H   0  0  0  0  0  0  0  0  0  0  0  0
    6.4350    4.5080   14.1130 H   0  0  0  0  0  0  0  0  0  0  0  0
    5.5040    3.2390   14.9110 H   0  0  0  0  0  0  0  0  0  0  0  0
    7.0920    4.7240   16.9910 S   0  0  0  0  0  0  0  0  0  0  0  0
    7.5600    6.3010   17.5150 C   0  0  0  0  0  0  0  0  0  0  0  0
    7.5310    7.4120   16.8160 N   0  0  0  0  0  0  0  0  0  0  0  0
    7.9920    8.4280   17.6230 N   0  0  0  0  0  0  0  0  0  0  0  0
    8.2860    7.9040   18.7910 C   0  0  0  0  0  0  0  0  0  0  0  0
    8.0290    6.5650   18.7690 N   0  0  0  0  0  0  0  0  0  0  0  0
    8.6720    8.4360   19.6490 H   0  0  0  0  0  0  0  0  0  0  0  0
    8.2190    5.6510   19.8620 C   0  0  0  0  0  0  0  0  0  0  0  0
    7.9360    6.1490   20.7920 H   0  0  0  0  0  0  0  0  0  0  0  0
    9.2710    5.3560   19.9130 H   0  0  0  0  0  0  0  0  0  0  0  0
    7.6020    4.7650   19.6900 H   0  0  0  0  0  0  0  0  0  0  0  0
  1  2  2  0  0  0  0
  1  6  1  0  0  0  0
  2  3  1  0  0  0  0
  3  8  1  0  0  0  0
  3  4  2  0  0  0  0
  4  9  1  0  0  0  0
  5  4  1  0  0  0  0
  5 11  1  0  0  0  0
  6  5  2  0  0  0  0
  7  2  1  0  0  0  0
 10  6  1  0  0  0  0
 11 14  1  0  0  0  0
 12 11  1  0  0  0  0
 12 15  1  0  0  0  0
 13 12  2  0  0  0  0
 15 24  1  0  0  0  0
 16 15  2  0  0  0  0
 16 17  1  0  0  0  0
 17 22  1  0  0  0  0
 18 17  2  0  0  0  0
 18 19  1  0  0  0  0
 19 20  2  0  0  0  0
 20 21  1  0  0  0  0
 20 28  1  0  0  0  0
 21 29  1  0  0  0  0
 22 23  1  0  0  0  0
 22 21  2  0  0  0  0
 23 30  1  0  0  0  0
 24 23  2  0  0  0  0
 25 16  1  0  0  0  0
 26 18  1  0  0  0  0
 27 19  1  0  0  0  0
 31 32  1  6  0  0  0
 31  1  1  0  0  0  0
 31 37  1  0  0  0  0
 33 36  1  0  0  0  0
 33 31  1  0  0  0  0
 34 33  1  0  0  0  0
 35 33  1  0  0  0  0
 37 38  1  0  0  0  0
 38 42  1  0  0  0  0
 39 38  2  0  0  0  0
 39 40  1  0  0  0  0
 40 41  2  0  0  0  0
 41 43  1  0  0  0  0
 42 41  1  0  0  0  0
 42 44  1  0  0  0  0
 44 46  1  0  0  0  0
 44 45  1  0  0  0  0
 47 44  1  0  0  0  0
M  END
>  <MODEL>
8

>  <REMARK>
 VINA RESULT:    -7.439      3.782      9.230
 INTER + INTRA:         -10.597
 INTER:                 -10.209
 INTRA:                  -0.388
 UNBOUND:                -0.548
  Name = 
  7 active torsions:
  status: ('A' for Active; 'I' for Inactive)
    1  A    between atoms: C_1  and  C_2
    2  A    between atoms: C_2  and  C_3
    3  A    between atoms: C_2  and  S_22
    4  A    between atoms: C_7  and  N_9
    5  A    between atoms: C_10  and  C_11
    6  A    between atoms: S_22  and  C_23
    7  A    between atoms: N_27  and  C_28
                            x       y       z     vdW  Elec       q    Type
                         _______ _______ _______ _____ _____    ______ ____

>  <TORSDO>
F 7

$$$$
=
 OpenBabel07192307433D

 47 50  0  0  1  0  0  0  0  0999 V2000
   -0.9760   11.5710   18.8280 C   0  0  0  0  0  0  0  0  0  0  0  0
   -0.2880   12.7930   18.8640 C   0  0  0  0  0  0  0  0  0  0  0  0
    1.0950   12.8340   18.6940 C   0  0  0  0  0  0  0  0  0  0  0  0
    1.8150   11.6560   18.4800 C   0  0  0  0  0  0  0  0  0  0  0  0
    1.1560   10.4290   18.4310 C   0  0  0  0  0  0  0  0  0  0  0  0
   -0.2350   10.3950   18.6040 C   0  0  0  0  0  0  0  0  0  0  0  0
   -0.8260   13.7260   19.0250 H   0  0  0  0  0  0  0  0  0  0  0  0
    1.6190   13.7850   18.7260 H   0  0  0  0  0  0  0  0  0  0  0  0
    2.8890   11.7310   18.3530 H   0  0  0  0  0  0  0  0  0  0  0  0
   -0.7540    9.4410   18.5540 H   0  0  0  0  0  0  0  0  0  0  0  0
    1.8060    9.2020   18.2150 N   0  0  0  0  0  0  0  0  0  0  0  0
    2.0150    8.1700   19.1100 C   0  0  0  0  0  0  0  0  0  0  0  0
    1.6730    8.1230   20.2860 O   0  0  0  0  0  0  0  0  0  0  0  0
    2.1800    9.0220   17.2860 H   0  0  0  0  0  0  0  0  0  0  0  0
    2.7500    7.0130   18.4960 C   0  0  0  0  0  0  0  0  0  0  0  0
    3.7100    7.2400   17.5180 C   0  0  0  0  0  0  0  0  0  0  0  0
    4.3760    6.1410   16.9670 C   0  0  0  0  0  0  0  0  0  0  0  0
    5.3590    6.2950   15.9750 C   0  0  0  0  0  0  0  0  0  0  0  0
    6.0100    5.1800   15.4420 C   0  0  0  0  0  0  0  0  0  0  0  0
    5.6900    3.9020   15.8900 C   0  0  0  0  0  0  0  0  0  0  0  0
    4.7160    3.7320   16.8760 C   0  0  0  0  0  0  0  0  0  0  0  0
    4.0530    4.8460   17.4200 C   0  0  0  0  0  0  0  0  0  0  0  0
    3.0710    4.7330   18.4080 C   0  0  0  0  0  0  0  0  0  0  0  0
    2.4090    5.7770   18.9580 N   0  0  0  0  0  0  0  0  0  0  0  0
    3.9300    8.2540   17.1970 H   0  0  0  0  0  0  0  0  0  0  0  0
    5.6250    7.2850   15.6090 H   0  0  0  0  0  0  0  0  0  0  0  0
    6.7690    5.3120   14.6740 H   0  0  0  0  0  0  0  0  0  0  0  0
    6.1990    3.0360   15.4730 H   0  0  0  0  0  0  0  0  0  0  0  0
    4.4790    2.7260   17.2150 H   0  0  0  0  0  0  0  0  0  0  0  0
    2.7800    3.7590   18.7970 H   0  0  0  0  0  0  0  0  0  0  0  0
   -2.4870   11.5550   19.0100 C   0  0  2  0  0  0  0  0  0  0  0  0
   -2.7440   10.6730   19.6090 H   0  0  0  0  0  0  0  0  0  0  0  0
   -3.2310   11.4480   17.6750 C   0  0  0  0  0  0  0  0  0  0  0  0
   -3.4900   10.4110   17.4400 H   0  0  0  0  0  0  0  0  0  0  0  0
   -4.1580   12.0330   17.6620 H   0  0  0  0  0  0  0  0  0  0  0  0
   -2.6030   11.8180   16.8560 H   0  0  0  0  0  0  0  0  0  0  0  0
   -3.0200   13.0520   19.9310 S   0  0  0  0  0  0  0  0  0  0  0  0
   -2.8480   12.5310   21.5670 C   0  0  0  0  0  0  0  0  0  0  0  0
   -1.8290   11.8930   22.0950 N   0  0  0  0  0  0  0  0  0  0  0  0
   -2.1140   11.6750   23.4250 N   0  0  0  0  0  0  0  0  0  0  0  0
   -3.2970   12.1920   23.6660 C   0  0  0  0  0  0  0  0  0  0  0  0
   -3.7980   12.7420   22.5250 N   0  0  0  0  0  0  0  0  0  0  0  0
   -3.8100   12.1900   24.6180 H   0  0  0  0  0  0  0  0  0  0  0  0
   -5.0650   13.4070   22.3930 C   0  0  0  0  0  0  0  0  0  0  0  0
   -5.6160   12.9550   21.5640 H   0  0  0  0  0  0  0  0  0  0  0  0
   -4.9010   14.4680   22.1840 H   0  0  0  0  0  0  0  0  0  0  0  0
   -5.6170   13.3030   23.3300 H   0  0  0  0  0  0  0  0  0  0  0  0
  1  2  1  0  0  0  0
  1 31  1  0  0  0  0
  2  7  1  0  0  0  0
  3  8  1  0  0  0  0
  3  2  2  0  0  0  0
  4  3  1  0  0  0  0
  5  4  2  0  0  0  0
  5  6  1  0  0  0  0
  6  1  2  0  0  0  0
  9  4  1  0  0  0  0
 10  6  1  0  0  0  0
 11  5  1  0  0  0  0
 11 12  1  0  0  0  0
 12 13  2  0  0  0  0
 14 11  1  0  0  0  0
 15 24  1  0  0  0  0
 15 12  1  0  0  0  0
 16 15  2  0  0  0  0
 17 22  1  0  0  0  0
 17 16  1  0  0  0  0
 18 17  2  0  0  0  0
 19 20  2  0  0  0  0
 19 18  1  0  0  0  0
 20 21  1  0  0  0  0
 21 29  1  0  0  0  0
 21 22  2  0  0  0  0
 22 23  1  0  0  0  0
 23 30  1  0  0  0  0
 23 24  2  0  0  0  0
 25 16  1  0  0  0  0
 26 18  1  0  0  0  0
 27 19  1  0  0  0  0
 28 20  1  0  0  0  0
 31 32  1  1  0  0  0
 31 37  1  0  0  0  0
 33 31  1  0  0  0  0
 34 33  1  0  0  0  0
 35 33  1  0  0  0  0
 36 33  1  0  0  0  0
 37 38  1  0  0  0  0
 38 39  2  0  0  0  0
 38 42  1  0  0  0  0
 39 40  1  0  0  0  0
 40 41  2  0  0  0  0
 41 43  1  0  0  0  0
 42 41  1  0  0  0  0
 44 42  1  0  0  0  0
 44 47  1  0  0  0  0
 45 44  1  0  0  0  0
 46 44  1  0  0  0  0
M  END
>  <MODEL>
9

>  <REMARK>
 VINA RESULT:    -7.379      2.738      3.564
 INTER + INTRA:         -10.515
 INTER:                  -9.853
 INTRA:                  -0.662
 UNBOUND:                -0.548
  Name = 
  7 active torsions:
  status: ('A' for Active; 'I' for Inactive)
    1  A    between atoms: C_1  and  C_2
    2  A    between atoms: C_2  and  C_3
    3  A    between atoms: C_2  and  S_22
    4  A    between atoms: C_7  and  N_9
    5  A    between atoms: C_10  and  C_11
    6  A    between atoms: S_22  and  C_23
    7  A    between atoms: N_27  and  C_28
                            x       y       z     vdW  Elec       q    Type
                         _______ _______ _______ _____ _____    ______ ____

>  <TORSDO>
F 7

$$$$
=
 OpenBabel07192307433D

 47 50  0  0  1  0  0  0  0  0999 V2000
    4.8340    4.3220   17.2600 C   0  0  0  0  0  0  0  0  0  0  0  0
    4.1180    3.1540   16.9590 C   0  0  0  0  0  0  0  0  0  0  0  0
    2.7870    3.0170   17.3500 C   0  0  0  0  0  0  0  0  0  0  0  0
    2.1460    4.0460   18.0440 C   0  0  0  0  0  0  0  0  0  0  0  0
    2.8310    5.2210   18.3490 C   0  0  0  0  0  0  0  0  0  0  0  0
    4.1700    5.3510   17.9540 C   0  0  0  0  0  0  0  0  0  0  0  0
    4.5930    2.3390   16.4160 H   0  0  0  0  0  0  0  0  0  0  0  0
    2.2420    2.1070   17.1140 H   0  0  0  0  0  0  0  0  0  0  0  0
    1.1100    3.9000   18.3300 H   0  0  0  0  0  0  0  0  0  0  0  0
    4.7030    6.2710   18.1790 H   0  0  0  0  0  0  0  0  0  0  0  0
    2.2570    6.3030   19.0380 N   0  0  0  0  0  0  0  0  0  0  0  0
    2.2440    7.6380   18.6850 C   0  0  0  0  0  0  0  0  0  0  0  0
    2.7390    8.1500   17.6880 O   0  0  0  0  0  0  0  0  0  0  0  0
    1.7820    6.1050   19.9170 H   0  0  0  0  0  0  0  0  0  0  0  0
    1.5210    8.4930   19.6860 C   0  0  0  0  0  0  0  0  0  0  0  0
    0.8450    9.6330   19.2670 C   0  0  0  0  0  0  0  0  0  0  0  0
    0.1820   10.4070   20.2240 C   0  0  0  0  0  0  0  0  0  0  0  0
   -0.5220   11.5710   19.8740 C   0  0  0  0  0  0  0  0  0  0  0  0
   -1.1770   12.3260   20.8490 C   0  0  0  0  0  0  0  0  0  0  0  0
   -1.1390   11.9290   22.1830 C   0  0  0  0  0  0  0  0  0  0  0  0
   -0.4440   10.7750   22.5490 C   0  0  0  0  0  0  0  0  0  0  0  0
    0.2200   10.0070   21.5760 C   0  0  0  0  0  0  0  0  0  0  0  0
    0.9290    8.8430   21.8860 C   0  0  0  0  0  0  0  0  0  0  0  0
    1.5820    8.0760   20.9830 N   0  0  0  0  0  0  0  0  0  0  0  0
    0.8390    9.9060   18.2160 H   0  0  0  0  0  0  0  0  0  0  0  0
   -0.5650   11.8990   18.8370 H   0  0  0  0  0  0  0  0  0  0  0  0
   -1.7180   13.2250   20.5650 H   0  0  0  0  0  0  0  0  0  0  0  0
   -1.6500   12.5200   22.9400 H   0  0  0  0  0  0  0  0  0  0  0  0
   -0.4240   10.4800   23.5950 H   0  0  0  0  0  0  0  0  0  0  0  0
    0.9930    8.4850   22.9110 H   0  0  0  0  0  0  0  0  0  0  0  0
    6.2840    4.4480   16.8160 C   0  0  2  0  0  0  0  0  0  0  0  0
    6.5970    3.4790   16.4100 H   0  0  0  0  0  0  0  0  0  0  0  0
    7.2190    4.7930   17.9800 C   0  0  0  0  0  0  0  0  0  0  0  0
    6.8360    4.4100   18.9310 H   0  0  0  0  0  0  0  0  0  0  0  0
    8.2290    4.3890   17.8430 H   0  0  0  0  0  0  0  0  0  0  0  0
    7.3160    5.8800   18.0840 H   0  0  0  0  0  0  0  0  0  0  0  0
    6.4210    5.7040   15.4830 S   0  0  0  0  0  0  0  0  0  0  0  0
    6.3640    4.7150   14.0690 C   0  0  0  0  0  0  0  0  0  0  0  0
    5.4860    3.7800   13.7880 N   0  0  0  0  0  0  0  0  0  0  0  0
    5.8180    3.2460   12.5630 N   0  0  0  0  0  0  0  0  0  0  0  0
    6.8870    3.8770   12.1340 C   0  0  0  0  0  0  0  0  0  0  0  0
    7.2670    4.8110   13.0500 N   0  0  0  0  0  0  0  0  0  0  0  0
    7.4010    3.6950   11.2000 H   0  0  0  0  0  0  0  0  0  0  0  0
    8.3880    5.7020   12.9330 C   0  0  0  0  0  0  0  0  0  0  0  0
    8.6190    6.1110   13.9200 H   0  0  0  0  0  0  0  0  0  0  0  0
    8.1360    6.5200   12.2520 H   0  0  0  0  0  0  0  0  0  0  0  0
    9.2400    5.1470   12.5320 H   0  0  0  0  0  0  0  0  0  0  0  0
  1  6  1  0  0  0  0
  2  1  2  0  0  0  0
  2  3  1  0  0  0  0
  3  4  2  0  0  0  0
  4  9  1  0  0  0  0
  4  5  1  0  0  0  0
  5 11  1  0  0  0  0
  6 10  1  0  0  0  0
  6  5  2  0  0  0  0
  7  2  1  0  0  0  0
  8  3  1  0  0  0  0
 11 14  1  0  0  0  0
 12 11  1  0  0  0  0
 12 15  1  0  0  0  0
 13 12  2  0  0  0  0
 15 24  1  0  0  0  0
 16 15  2  0  0  0  0
 16 17  1  0  0  0  0
 17 22  1  0  0  0  0
 18 17  2  0  0  0  0
 18 19  1  0  0  0  0
 19 20  2  0  0  0  0
 20 21  1  0  0  0  0
 20 28  1  0  0  0  0
 21 29  1  0  0  0  0
 22 23  1  0  0  0  0
 22 21  2  0  0  0  0
 23 30  1  0  0  0  0
 24 23  2  0  0  0  0
 25 16  1  0  0  0  0
 26 18  1  0  0  0  0
 27 19  1  0  0  0  0
 31 32  1  6  0  0  0
 31  1  1  0  0  0  0
 31 33  1  0  0  0  0
 33 36  1  0  0  0  0
 33 34  1  0  0  0  0
 35 33  1  0  0  0  0
 37 31  1  0  0  0  0
 38 37  1  0  0  0  0
 39 38  2  0  0  0  0
 40 39  1  0  0  0  0
 41 40  2  0  0  0  0
 41 42  1  0  0  0  0
 42 38  1  0  0  0  0
 43 41  1  0  0  0  0
 44 42  1  0  0  0  0
 44 45  1  0  0  0  0
 46 44  1  0  0  0  0
 47 44  1  0  0  0  0
M  END
>  <MODEL>
10

>  <REMARK>
 VINA RESULT:    -7.361      3.737      9.252
 INTER + INTRA:         -10.491
 INTER:                 -10.007
 INTRA:                  -0.484
 UNBOUND:                -0.548
  Name = 
  7 active torsions:
  status: ('A' for Active; 'I' for Inactive)
    1  A    between atoms: C_1  and  C_2
    2  A    between atoms: C_2  and  C_3
    3  A    between atoms: C_2  and  S_22
    4  A    between atoms: C_7  and  N_9
    5  A    between atoms: C_10  and  C_11
    6  A    between atoms: S_22  and  C_23
    7  A    between atoms: N_27  and  C_28
                            x       y       z     vdW  Elec       q    Type
                         _______ _______ _______ _____ _____    ______ ____

>  <TORSDO>
F 7

$$$$
=
 OpenBabel07192307433D

 47 50  0  0  1  0  0  0  0  0999 V2000
    2.6840    3.1300   19.1400 C   0  0  0  0  0  0  0  0  0  0  0  0
    2.7410    2.3000   20.2690 C   0  0  0  0  0  0  0  0  0  0  0  0
    2.4010    2.7900   21.5290 C   0  0  0  0  0  0  0  0  0  0  0  0
    1.9930    4.1170   21.6830 C   0  0  0  0  0  0  0  0  0  0  0  0
    1.9190    4.9630   20.5780 C   0  0  0  0  0  0  0  0  0  0  0  0
    2.2640    4.4630   19.3140 C   0  0  0  0  0  0  0  0  0  0  0  0
    3.0510    1.2600   20.1750 H   0  0  0  0  0  0  0  0  0  0  0  0
    2.4500    2.1390   22.3970 H   0  0  0  0  0  0  0  0  0  0  0  0
    1.7370    4.4590   22.6800 H   0  0  0  0  0  0  0  0  0  0  0  0
    2.1960    5.1160   18.4480 H   0  0  0  0  0  0  0  0  0  0  0  0
    1.5150    6.3060   20.6490 N   0  0  0  0  0  0  0  0  0  0  0  0
    1.9480    7.3760   19.8900 C   0  0  0  0  0  0  0  0  0  0  0  0
    2.7850    7.3640   18.9950 O   0  0  0  0  0  0  0  0  0  0  0  0
    0.8100    6.5530   21.3410 H   0  0  0  0  0  0  0  0  0  0  0  0
    1.2690    8.6630   20.2640 C   0  0  0  0  0  0  0  0  0  0  0  0
    0.5630    8.7540   21.4570 C   0  0  0  0  0  0  0  0  0  0  0  0
   -0.0570    9.9660   21.7760 C   0  0  0  0  0  0  0  0  0  0  0  0
   -0.7870   10.1320   22.9640 C   0  0  0  0  0  0  0  0  0  0  0  0
   -1.3960   11.3530   23.2600 C   0  0  0  0  0  0  0  0  0  0  0  0
   -1.2850   12.4220   22.3750 C   0  0  0  0  0  0  0  0  0  0  0  0
   -0.5620   12.2750   21.1890 C   0  0  0  0  0  0  0  0  0  0  0  0
    0.0550   11.0500   20.8810 C   0  0  0  0  0  0  0  0  0  0  0  0
    0.7890   10.8470   19.7090 C   0  0  0  0  0  0  0  0  0  0  0  0
    1.3980    9.6860   19.3730 N   0  0  0  0  0  0  0  0  0  0  0  0
    0.5020    7.8960   22.1200 H   0  0  0  0  0  0  0  0  0  0  0  0
   -0.8870    9.3090   23.6700 H   0  0  0  0  0  0  0  0  0  0  0  0
   -1.9590   11.4680   24.1830 H   0  0  0  0  0  0  0  0  0  0  0  0
   -1.7610   13.3720   22.6080 H   0  0  0  0  0  0  0  0  0  0  0  0
   -0.4860   13.1200   20.5100 H   0  0  0  0  0  0  0  0  0  0  0  0
    0.9100   11.6470   18.9810 H   0  0  0  0  0  0  0  0  0  0  0  0
    3.0540    2.5690   17.7750 C   0  0  2  0  0  0  0  0  0  0  0  0
    2.1710    2.0600   17.3700 H   0  0  0  0  0  0  0  0  0  0  0  0
    4.1890    1.5440   17.8580 C   0  0  0  0  0  0  0  0  0  0  0  0
    4.1250    0.8060   17.0520 H   0  0  0  0  0  0  0  0  0  0  0  0
    5.1810    2.0070   17.8040 H   0  0  0  0  0  0  0  0  0  0  0  0
    4.1390    0.9930   18.8050 H   0  0  0  0  0  0  0  0  0  0  0  0
    3.5010    3.9400   16.6380 S   0  0  0  0  0  0  0  0  0  0  0  0
    5.1500    4.2190   17.0630 C   0  0  0  0  0  0  0  0  0  0  0  0
    5.6240    4.5260   18.2480 N   0  0  0  0  0  0  0  0  0  0  0  0
    6.9900    4.6590   18.1330 N   0  0  0  0  0  0  0  0  0  0  0  0
    7.3060    4.4230   16.8800 C   0  0  0  0  0  0  0  0  0  0  0  0
    6.1780    4.1420   16.1680 N   0  0  0  0  0  0  0  0  0  0  0  0
    8.3020    4.4460   16.4590 H   0  0  0  0  0  0  0  0  0  0  0  0
    6.1200    3.8260   14.7670 C   0  0  0  0  0  0  0  0  0  0  0  0
    6.3410    2.7640   14.6350 H   0  0  0  0  0  0  0  0  0  0  0  0
    6.8620    4.4210   14.2270 H   0  0  0  0  0  0  0  0  0  0  0  0
    5.1210    4.0660   14.3940 H   0  0  0  0  0  0  0  0  0  0  0  0
  1  6  2  0  0  0  0
  1  2  1  0  0  0  0
  2  3  2  0  0  0  0
  3  4  1  0  0  0  0
  3  8  1  0  0  0  0
  4  9  1  0  0  0  0
  5 11  1  0  0  0  0
  5  4  2  0  0  0  0
  6  5  1  0  0  0  0
  7  2  1  0  0  0  0
 10  6  1  0  0  0  0
 11 14  1  0  0  0  0
 12 15  1  0  0  0  0
 12 11  1  0  0  0  0
 13 12  2  0  0  0  0
 15 16  1  0  0  0  0
 16 17  2  0  0  0  0
 16 25  1  0  0  0  0
 17 18  1  0  0  0  0
 18 19  2  0  0  0  0
 18 26  1  0  0  0  0
 19 27  1  0  0  0  0
 20 28  1  0  0  0  0
 20 19  1  0  0  0  0
 21 20  2  0  0  0  0
 22 21  1  0  0  0  0
 22 17  1  0  0  0  0
 23 22  2  0  0  0  0
 24 23  1  0  0  0  0
 24 15  2  0  0  0  0
 29 21  1  0  0  0  0
 30 23  1  0  0  0  0
 31 32  1  6  0  0  0
 31 33  1  0  0  0  0
 31  1  1  0  0  0  0
 33 36  1  0  0  0  0
 34 33  1  0  0  0  0
 35 33  1  0  0  0  0
 37 38  1  0  0  0  0
 37 31  1  0  0  0  0
 38 39  2  0  0  0  0
 40 39  1  0  0  0  0
 41 40  2  0  0  0  0
 42 41  1  0  0  0  0
 42 38  1  0  0  0  0
 43 41  1  0  0  0  0
 44 42  1  0  0  0  0
 45 44  1  0  0  0  0
 46 44  1  0  0  0  0
 47 44  1  0  0  0  0
M  END
>  <MODEL>
11

>  <REMARK>
 VINA RESULT:    -7.342      3.475      9.138
 INTER + INTRA:         -10.465
 INTER:                 -10.111
 INTRA:                  -0.354
 UNBOUND:                -0.548
  Name = 
  7 active torsions:
  status: ('A' for Active; 'I' for Inactive)
    1  A    between atoms: C_1  and  C_2
    2  A    between atoms: C_2  and  C_3
    3  A    between atoms: C_2  and  S_22
    4  A    between atoms: C_7  and  N_9
    5  A    between atoms: C_10  and  C_11
    6  A    between atoms: S_22  and  C_23
    7  A    between atoms: N_27  and  C_28
                            x       y       z     vdW  Elec       q    Type
                         _______ _______ _______ _____ _____    ______ ____

>  <TORSDO>
F 7

$$$$
=
 OpenBabel07192307433D

 47 50  0  0  1  0  0  0  0  0999 V2000
   -0.3470   12.3950   19.0660 C   0  0  0  0  0  0  0  0  0  0  0  0
   -1.6370   12.2630   18.5330 C   0  0  0  0  0  0  0  0  0  0  0  0
   -2.0310   11.0800   17.9100 C   0  0  0  0  0  0  0  0  0  0  0  0
   -1.1440   10.0050   17.8140 C   0  0  0  0  0  0  0  0  0  0  0  0
    0.1420   10.1050   18.3420 C   0  0  0  0  0  0  0  0  0  0  0  0
    0.5310   11.2990   18.9660 C   0  0  0  0  0  0  0  0  0  0  0  0
   -2.3490   13.0850   18.5980 H   0  0  0  0  0  0  0  0  0  0  0  0
   -3.0320   10.9880   17.4990 H   0  0  0  0  0  0  0  0  0  0  0  0
   -1.4890    9.1010   17.3230 H   0  0  0  0  0  0  0  0  0  0  0  0
    1.5290   11.3770   19.3900 H   0  0  0  0  0  0  0  0  0  0  0  0
    1.0900    9.0690   18.2910 N   0  0  0  0  0  0  0  0  0  0  0  0
    1.6330    8.3470   19.3360 C   0  0  0  0  0  0  0  0  0  0  0  0
    1.3930    8.4700   20.5310 O   0  0  0  0  0  0  0  0  0  0  0  0
    1.4410    8.7940   17.3760 H   0  0  0  0  0  0  0  0  0  0  0  0
    2.6190    7.3120   18.8720 C   0  0  0  0  0  0  0  0  0  0  0  0
    3.3020    7.4910   17.6750 C   0  0  0  0  0  0  0  0  0  0  0  0
    4.2130    6.5090   17.2730 C   0  0  0  0  0  0  0  0  0  0  0  0
    4.9400    6.6230   16.0770 C   0  0  0  0  0  0  0  0  0  0  0  0
    5.8450    5.6290   15.6980 C   0  0  0  0  0  0  0  0  0  0  0  0
    6.0350    4.5120   16.5060 C   0  0  0  0  0  0  0  0  0  0  0  0
    5.3210    4.3830   17.6990 C   0  0  0  0  0  0  0  0  0  0  0  0
    4.4070    5.3770   18.0910 C   0  0  0  0  0  0  0  0  0  0  0  0
    3.6670    5.2990   19.2740 C   0  0  0  0  0  0  0  0  0  0  0  0
    2.7770    6.2320   19.6880 N   0  0  0  0  0  0  0  0  0  0  0  0
    3.1240    8.3780   17.0750 H   0  0  0  0  0  0  0  0  0  0  0  0
    4.8060    7.4880   15.4290 H   0  0  0  0  0  0  0  0  0  0  0  0
    6.4010    5.7280   14.7680 H   0  0  0  0  0  0  0  0  0  0  0  0
    6.7410    3.7390   16.2080 H   0  0  0  0  0  0  0  0  0  0  0  0
    5.4830    3.5040   18.3180 H   0  0  0  0  0  0  0  0  0  0  0  0
    3.7740    4.4500   19.9450 H   0  0  0  0  0  0  0  0  0  0  0  0
    0.0560   13.6960   19.7450 C   0  0  2  0  0  0  0  0  0  0  0  0
   -0.8290   14.3440   19.7810 H   0  0  0  0  0  0  0  0  0  0  0  0
    1.1500   14.4400   18.9740 C   0  0  0  0  0  0  0  0  0  0  0  0
    1.9930   14.7030   19.6220 H   0  0  0  0  0  0  0  0  0  0  0  0
    1.5470   13.8550   18.1360 H   0  0  0  0  0  0  0  0  0  0  0  0
    0.7580   15.3760   18.5590 H   0  0  0  0  0  0  0  0  0  0  0  0
    0.5930   13.3590   21.4680 S   0  0  0  0  0  0  0  0  0  0  0  0
   -0.9150   13.0350   22.2440 C   0  0  0  0  0  0  0  0  0  0  0  0
   -1.8790   13.8900   22.4960 N   0  0  0  0  0  0  0  0  0  0  0  0
   -2.8940   13.2050   23.1260 N   0  0  0  0  0  0  0  0  0  0  0  0
   -2.5160   11.9520   23.2350 C   0  0  0  0  0  0  0  0  0  0  0  0
   -1.2760   11.7980   22.6930 N   0  0  0  0  0  0  0  0  0  0  0  0
   -3.0890   11.1520   23.6840 H   0  0  0  0  0  0  0  0  0  0  0  0
   -0.5320   10.5700   22.6190 C   0  0  0  0  0  0  0  0  0  0  0  0
   -0.0740   10.3750   23.5910 H   0  0  0  0  0  0  0  0  0  0  0  0
    0.2500   10.6620   21.8610 H   0  0  0  0  0  0  0  0  0  0  0  0
   -1.2140    9.7620   22.3400 H   0  0  0  0  0  0  0  0  0  0  0  0
  1 31  1  0  0  0  0
  2  7  1  0  0  0  0
  2  1  2  0  0  0  0
  3  2  1  0  0  0  0
  4  3  2  0  0  0  0
  4  5  1  0  0  0  0
  5  6  2  0  0  0  0
  6  1  1  0  0  0  0
  6 10  1  0  0  0  0
  8  3  1  0  0  0  0
  9  4  1  0  0  0  0
 11  5  1  0  0  0  0
 11 12  1  0  0  0  0
 12 13  2  0  0  0  0
 14 11  1  0  0  0  0
 15 12  1  0  0  0  0
 15 24  1  0  0  0  0
 16 15  2  0  0  0  0
 17 16  1  0  0  0  0
 17 22  1  0  0  0  0
 18 17  2  0  0  0  0
 19 18  1  0  0  0  0
 19 20  2  0  0  0  0
 20 21  1  0  0  0  0
 21 22  2  0  0  0  0
 21 29  1  0  0  0  0
 22 23  1  0  0  0  0
 23 24  2  0  0  0  0
 23 30  1  0  0  0  0
 25 16  1  0  0  0  0
 26 18  1  0  0  0  0
 27 19  1  0  0  0  0
 28 20  1  0  0  0  0
 31 32  1  1  0  0  0
 31 37  1  0  0  0  0
 33 34  1  0  0  0  0
 33 31  1  0  0  0  0
 35 33  1  0  0  0  0
 36 33  1  0  0  0  0
 37 38  1  0  0  0  0
 38 39  2  0  0  0  0
 38 42  1  0  0  0  0
 39 40  1  0  0  0  0
 40 41  2  0  0  0  0
 41 43  1  0  0  0  0
 42 41  1  0  0  0  0
 44 42  1  0  0  0  0
 44 45  1  0  0  0  0
 46 44  1  0  0  0  0
 47 44  1  0  0  0  0
M  END
>  <MODEL>
12

>  <REMARK>
 VINA RESULT:    -7.333      2.696      3.951
 INTER + INTRA:         -10.454
 INTER:                  -9.555
 INTRA:                  -0.899
 UNBOUND:                -0.548
  Name = 
  7 active torsions:
  status: ('A' for Active; 'I' for Inactive)
    1  A    between atoms: C_1  and  C_2
    2  A    between atoms: C_2  and  C_3
    3  A    between atoms: C_2  and  S_22
    4  A    between atoms: C_7  and  N_9
    5  A    between atoms: C_10  and  C_11
    6  A    between atoms: S_22  and  C_23
    7  A    between atoms: N_27  and  C_28
                            x       y       z     vdW  Elec       q    Type
                         _______ _______ _______ _____ _____    ______ ____

>  <TORSDO>
F 7

$$$$
=
 OpenBabel07192307433D

 47 50  0  0  1  0  0  0  0  0999 V2000
   -0.3020   10.5930   20.2740 C   0  0  0  0  0  0  0  0  0  0  0  0
   -0.2990   10.6730   21.6740 C   0  0  0  0  0  0  0  0  0  0  0  0
    0.4550    9.7810   22.4350 C   0  0  0  0  0  0  0  0  0  0  0  0
    1.2240    8.7950   21.8100 C   0  0  0  0  0  0  0  0  0  0  0  0
    1.2460    8.6970   20.4200 C   0  0  0  0  0  0  0  0  0  0  0  0
    0.4840    9.5980   19.6620 C   0  0  0  0  0  0  0  0  0  0  0  0
   -0.8850   11.4340   22.1860 H   0  0  0  0  0  0  0  0  0  0  0  0
    0.4490    9.8500   23.5200 H   0  0  0  0  0  0  0  0  0  0  0  0
    1.7960    8.1200   22.4380 H   0  0  0  0  0  0  0  0  0  0  0  0
    0.5090    9.5330   18.5770 H   0  0  0  0  0  0  0  0  0  0  0  0
    1.9950    7.7390   19.7170 N   0  0  0  0  0  0  0  0  0  0  0  0
    2.0960    6.3820   19.9540 C   0  0  0  0  0  0  0  0  0  0  0  0
    1.5450    5.7380   20.8390 O   0  0  0  0  0  0  0  0  0  0  0  0
    2.5460    8.0590   18.9230 H   0  0  0  0  0  0  0  0  0  0  0  0
    2.9980    5.6900   18.9730 C   0  0  0  0  0  0  0  0  0  0  0  0
    3.5950    6.4140   17.9480 C   0  0  0  0  0  0  0  0  0  0  0  0
    4.4300    5.7390   17.0520 C   0  0  0  0  0  0  0  0  0  0  0  0
    5.0680    6.4050   15.9930 C   0  0  0  0  0  0  0  0  0  0  0  0
    5.8980    5.7090   15.1120 C   0  0  0  0  0  0  0  0  0  0  0  0
    6.1020    4.3410   15.2760 C   0  0  0  0  0  0  0  0  0  0  0  0
    5.4760    3.6640   16.3240 C   0  0  0  0  0  0  0  0  0  0  0  0
    4.6380    4.3540   17.2170 C   0  0  0  0  0  0  0  0  0  0  0  0
    3.9860    3.7260   18.2820 C   0  0  0  0  0  0  0  0  0  0  0  0
    3.1720    4.3510   19.1640 N   0  0  0  0  0  0  0  0  0  0  0  0
    3.4100    7.4800   17.8560 H   0  0  0  0  0  0  0  0  0  0  0  0
    4.9230    7.4740   15.8450 H   0  0  0  0  0  0  0  0  0  0  0  0
    6.3860    6.2360   14.2950 H   0  0  0  0  0  0  0  0  0  0  0  0
    6.7490    3.8020   14.5890 H   0  0  0  0  0  0  0  0  0  0  0  0
    5.6460    2.5950   16.4380 H   0  0  0  0  0  0  0  0  0  0  0  0
    4.1080    2.6600   18.4600 H   0  0  0  0  0  0  0  0  0  0  0  0
   -1.1290   11.5830   19.4670 C   0  0  2  0  0  0  0  0  0  0  0  0
   -1.7120   12.1880   20.1730 H   0  0  0  0  0  0  0  0  0  0  0  0
   -2.1130   10.8850   18.5240 C   0  0  0  0  0  0  0  0  0  0  0  0
   -2.0500   11.2860   17.5070 H   0  0  0  0  0  0  0  0  0  0  0  0
   -1.9450    9.8030   18.4650 H   0  0  0  0  0  0  0  0  0  0  0  0
   -3.1440   11.0350   18.8670 H   0  0  0  0  0  0  0  0  0  0  0  0
   -0.0170   12.7040   18.5290 S   0  0  0  0  0  0  0  0  0  0  0  0
    0.9680   13.3500   19.7910 C   0  0  0  0  0  0  0  0  0  0  0  0
    2.2160   13.0440   20.0610 N   0  0  0  0  0  0  0  0  0  0  0  0
    2.6070   13.7940   21.1470 N   0  0  0  0  0  0  0  0  0  0  0  0
    1.5850   14.5380   21.5020 C   0  0  0  0  0  0  0  0  0  0  0  0
    0.5300   14.2920   20.6760 N   0  0  0  0  0  0  0  0  0  0  0  0
    1.5650   15.2430   22.3220 H   0  0  0  0  0  0  0  0  0  0  0  0
   -0.7620   14.9180   20.7460 C   0  0  0  0  0  0  0  0  0  0  0  0
   -1.1890   14.9610   19.7410 H   0  0  0  0  0  0  0  0  0  0  0  0
   -0.6550   15.9340   21.1380 H   0  0  0  0  0  0  0  0  0  0  0  0
   -1.4000   14.3360   21.4150 H   0  0  0  0  0  0  0  0  0  0  0  0
  1  2  1  0  0  0  0
  2  7  1  0  0  0  0
  2  3  2  0  0  0  0
  3  8  1  0  0  0  0
  4  3  1  0  0  0  0
  4  9  1  0  0  0  0
  5  4  2  0  0  0  0
  6  1  2  0  0  0  0
  6  5  1  0  0  0  0
 10  6  1  0  0  0  0
 11 12  1  0  0  0  0
 11  5  1  0  0  0  0
 12 13  2  0  0  0  0
 14 11  1  0  0  0  0
 15 24  1  0  0  0  0
 15 12  1  0  0  0  0
 16 15  2  0  0  0  0
 17 22  1  0  0  0  0
 17 16  1  0  0  0  0
 18 17  2  0  0  0  0
 19 20  2  0  0  0  0
 19 18  1  0  0  0  0
 20 21  1  0  0  0  0
 21 29  1  0  0  0  0
 21 22  2  0  0  0  0
 22 23  1  0  0  0  0
 23 30  1  0  0  0  0
 23 24  2  0  0  0  0
 25 16  1  0  0  0  0
 26 18  1  0  0  0  0
 27 19  1  0  0  0  0
 28 20  1  0  0  0  0
 31 32  1  1  0  0  0
 31  1  1  0  0  0  0
 33 36  1  0  0  0  0
 33 31  1  0  0  0  0
 34 33  1  0  0  0  0
 35 33  1  0  0  0  0
 37 31  1  0  0  0  0
 37 38  1  0  0  0  0
 38 39  2  0  0  0  0
 38 42  1  0  0  0  0
 39 40  1  0  0  0  0
 40 41  2  0  0  0  0
 41 43  1  0  0  0  0
 42 44  1  0  0  0  0
 42 41  1  0  0  0  0
 44 46  1  0  0  0  0
 44 47  1  0  0  0  0
 45 44  1  0  0  0  0
M  END
>  <MODEL>
13

>  <REMARK>
 VINA RESULT:    -7.302      2.372      3.391
 INTER + INTRA:         -10.411
 INTER:                  -9.740
 INTRA:                  -0.672
 UNBOUND:                -0.548
  Name = 
  7 active torsions:
  status: ('A' for Active; 'I' for Inactive)
    1  A    between atoms: C_1  and  C_2
    2  A    between atoms: C_2  and  C_3
    3  A    between atoms: C_2  and  S_22
    4  A    between atoms: C_7  and  N_9
    5  A    between atoms: C_10  and  C_11
    6  A    between atoms: S_22  and  C_23
    7  A    between atoms: N_27  and  C_28
                            x       y       z     vdW  Elec       q    Type
                         _______ _______ _______ _____ _____    ______ ____

>  <TORSDO>
F 7

$$$$
=
 OpenBabel07192307433D

 47 50  0  0  1  0  0  0  0  0999 V2000
   -0.1610   10.4990   20.7910 C   0  0  0  0  0  0  0  0  0  0  0  0
   -1.0320   10.9870   19.8070 C   0  0  0  0  0  0  0  0  0  0  0  0
   -0.8980   10.5890   18.4780 C   0  0  0  0  0  0  0  0  0  0  0  0
    0.1070    9.6910   18.1090 C   0  0  0  0  0  0  0  0  0  0  0  0
    0.9830    9.1830   19.0680 C   0  0  0  0  0  0  0  0  0  0  0  0
    0.8420    9.5900   20.4030 C   0  0  0  0  0  0  0  0  0  0  0  0
   -1.8270   11.6850   20.0680 H   0  0  0  0  0  0  0  0  0  0  0  0
   -1.5770   10.9750   17.7230 H   0  0  0  0  0  0  0  0  0  0  0  0
    0.1790    9.4060   17.0650 H   0  0  0  0  0  0  0  0  0  0  0  0
    1.5140    9.1870   21.1550 H   0  0  0  0  0  0  0  0  0  0  0  0
    2.0150    8.2750   18.7800 N   0  0  0  0  0  0  0  0  0  0  0  0
    2.3080    7.0790   19.4060 C   0  0  0  0  0  0  0  0  0  0  0  0
    1.7180    6.5690   20.3520 O   0  0  0  0  0  0  0  0  0  0  0  0
    2.6440    8.5020   18.0130 H   0  0  0  0  0  0  0  0  0  0  0  0
    3.4950    6.3850   18.8000 C   0  0  0  0  0  0  0  0  0  0  0  0
    3.7930    6.5660   17.4550 C   0  0  0  0  0  0  0  0  0  0  0  0
    4.9050    5.9060   16.9230 C   0  0  0  0  0  0  0  0  0  0  0  0
    5.2680    6.0430   15.5730 C   0  0  0  0  0  0  0  0  0  0  0  0
    6.3840    5.3740   15.0660 C   0  0  0  0  0  0  0  0  0  0  0  0
    7.1510    4.5630   15.8980 C   0  0  0  0  0  0  0  0  0  0  0  0
    6.8050    4.4170   17.2430 C   0  0  0  0  0  0  0  0  0  0  0  0
    5.6830    5.0850   17.7640 C   0  0  0  0  0  0  0  0  0  0  0  0
    5.2920    4.9740   19.1010 C   0  0  0  0  0  0  0  0  0  0  0  0
    4.2200    5.5980   19.6440 N   0  0  0  0  0  0  0  0  0  0  0  0
    3.1690    7.2080   16.8410 H   0  0  0  0  0  0  0  0  0  0  0  0
    4.6820    6.6710   14.9040 H   0  0  0  0  0  0  0  0  0  0  0  0
    6.6540    5.4870   14.0180 H   0  0  0  0  0  0  0  0  0  0  0  0
    8.0190    4.0430   15.5000 H   0  0  0  0  0  0  0  0  0  0  0  0
    7.4150    3.7790   17.8780 H   0  0  0  0  0  0  0  0  0  0  0  0
    5.8530    4.3550   19.7980 H   0  0  0  0  0  0  0  0  0  0  0  0
   -0.3340   10.9460   22.2360 C   0  0  2  0  0  0  0  0  0  0  0  0
    0.4570   11.6730   22.4600 H   0  0  0  0  0  0  0  0  0  0  0  0
   -0.1940    9.7840   23.2230 C   0  0  0  0  0  0  0  0  0  0  0  0
    0.8030    9.3330   23.1780 H   0  0  0  0  0  0  0  0  0  0  0  0
   -0.3740   10.0880   24.2610 H   0  0  0  0  0  0  0  0  0  0  0  0
   -0.9170    8.9930   22.9880 H   0  0  0  0  0  0  0  0  0  0  0  0
   -1.9580   11.7790   22.4410 S   0  0  0  0  0  0  0  0  0  0  0  0
   -1.4760   13.3520   22.9620 C   0  0  0  0  0  0  0  0  0  0  0  0
   -0.4020   14.0150   22.6020 N   0  0  0  0  0  0  0  0  0  0  0  0
   -0.4140   15.2250   23.2590 N   0  0  0  0  0  0  0  0  0  0  0  0
   -1.5000   15.2630   23.9970 C   0  0  0  0  0  0  0  0  0  0  0  0
   -2.2010   14.1040   23.8410 N   0  0  0  0  0  0  0  0  0  0  0  0
   -1.8080   16.0800   24.6350 H   0  0  0  0  0  0  0  0  0  0  0  0
   -3.4450   13.7770   24.4810 C   0  0  0  0  0  0  0  0  0  0  0  0
   -3.8660   12.8900   24.0010 H   0  0  0  0  0  0  0  0  0  0  0  0
   -4.1420   14.6130   24.3740 H   0  0  0  0  0  0  0  0  0  0  0  0
   -3.2580   13.5950   25.5420 H   0  0  0  0  0  0  0  0  0  0  0  0
  1 31  1  0  0  0  0
  2  7  1  0  0  0  0
  2  1  2  0  0  0  0
  3  2  1  0  0  0  0
  4  3  2  0  0  0  0
  4  5  1  0  0  0  0
  5  6  2  0  0  0  0
  6  1  1  0  0  0  0
  6 10  1  0  0  0  0
  8  3  1  0  0  0  0
  9  4  1  0  0  0  0
 11  5  1  0  0  0  0
 11 12  1  0  0  0  0
 12 13  2  0  0  0  0
 14 11  1  0  0  0  0
 15 12  1  0  0  0  0
 15 24  1  0  0  0  0
 16 15  2  0  0  0  0
 17 16  1  0  0  0  0
 17 22  1  0  0  0  0
 18 17  2  0  0  0  0
 19 18  1  0  0  0  0
 19 20  2  0  0  0  0
 20 21  1  0  0  0  0
 21 22  2  0  0  0  0
 21 29  1  0  0  0  0
 22 23  1  0  0  0  0
 23 24  2  0  0  0  0
 23 30  1  0  0  0  0
 25 16  1  0  0  0  0
 26 18  1  0  0  0  0
 27 19  1  0  0  0  0
 28 20  1  0  0  0  0
 31 37  1  0  0  0  0
 31 32  1  1  0  0  0
 31 33  1  0  0  0  0
 33 35  1  0  0  0  0
 34 33  1  0  0  0  0
 36 33  1  0  0  0  0
 37 38  1  0  0  0  0
 38 42  1  0  0  0  0
 39 38  2  0  0  0  0
 39 40  1  0  0  0  0
 40 41  2  0  0  0  0
 41 43  1  0  0  0  0
 42 41  1  0  0  0  0
 42 44  1  0  0  0  0
 44 47  1  0  0  0  0
 45 44  1  0  0  0  0
 46 44  1  0  0  0  0
M  END
>  <MODEL>
14

>  <REMARK>
 VINA RESULT:    -7.255      3.208      4.259
 INTER + INTRA:         -10.348
 INTER:                  -9.843
 INTRA:                  -0.505
 UNBOUND:                -0.548
  Name = 
  7 active torsions:
  status: ('A' for Active; 'I' for Inactive)
    1  A    between atoms: C_1  and  C_2
    2  A    between atoms: C_2  and  C_3
    3  A    between atoms: C_2  and  S_22
    4  A    between atoms: C_7  and  N_9
    5  A    between atoms: C_10  and  C_11
    6  A    between atoms: S_22  and  C_23
    7  A    between atoms: N_27  and  C_28
                            x       y       z     vdW  Elec       q    Type
                         _______ _______ _______ _____ _____    ______ ____

>  <TORSDO>
F 7

$$$$
=
 OpenBabel07192307433D

 47 50  0  0  1  0  0  0  0  0999 V2000
   -0.4580   11.1470   20.9830 C   0  0  0  0  0  0  0  0  0  0  0  0
   -0.6990   11.1160   22.3640 C   0  0  0  0  0  0  0  0  0  0  0  0
   -0.3150   10.0150   23.1280 C   0  0  0  0  0  0  0  0  0  0  0  0
    0.3220    8.9270   22.5270 C   0  0  0  0  0  0  0  0  0  0  0  0
    0.5830    8.9340   21.1580 C   0  0  0  0  0  0  0  0  0  0  0  0
    0.1920   10.0450   20.3960 C   0  0  0  0  0  0  0  0  0  0  0  0
   -1.1910   11.9530   22.8590 H   0  0  0  0  0  0  0  0  0  0  0  0
   -0.5090   10.0000   24.1970 H   0  0  0  0  0  0  0  0  0  0  0  0
    0.6050    8.0900   23.1560 H   0  0  0  0  0  0  0  0  0  0  0  0
    0.4050   10.0590   19.3300 H   0  0  0  0  0  0  0  0  0  0  0  0
    1.2230    7.8840   20.4790 N   0  0  0  0  0  0  0  0  0  0  0  0
    1.9720    7.9380   19.3200 C   0  0  0  0  0  0  0  0  0  0  0  0
    2.2280    8.9280   18.6450 O   0  0  0  0  0  0  0  0  0  0  0  0
    1.1400    6.9480   20.8710 H   0  0  0  0  0  0  0  0  0  0  0  0
    2.4990    6.5930   18.9090 C   0  0  0  0  0  0  0  0  0  0  0  0
    1.8870    5.4350   19.3750 C   0  0  0  0  0  0  0  0  0  0  0  0
    2.4010    4.1990   18.9720 C   0  0  0  0  0  0  0  0  0  0  0  0
    1.8340    2.9880   19.4030 C   0  0  0  0  0  0  0  0  0  0  0  0
    2.3660    1.7660   18.9850 C   0  0  0  0  0  0  0  0  0  0  0  0
    3.4680    1.7370   18.1350 C   0  0  0  0  0  0  0  0  0  0  0  0
    4.0430    2.9320   17.6970 C   0  0  0  0  0  0  0  0  0  0  0  0
    3.5170    4.1680   18.1110 C   0  0  0  0  0  0  0  0  0  0  0  0
    4.0530    5.3920   17.7040 C   0  0  0  0  0  0  0  0  0  0  0  0
    3.5790    6.6030   18.0780 N   0  0  0  0  0  0  0  0  0  0  0  0
    1.0280    5.5030   20.0370 H   0  0  0  0  0  0  0  0  0  0  0  0
    0.9720    2.9870   20.0680 H   0  0  0  0  0  0  0  0  0  0  0  0
    1.9180    0.8360   19.3260 H   0  0  0  0  0  0  0  0  0  0  0  0
    3.8800    0.7840   17.8120 H   0  0  0  0  0  0  0  0  0  0  0  0
    4.9030    2.8900   17.0330 H   0  0  0  0  0  0  0  0  0  0  0  0
    4.9140    5.4310   17.0390 H   0  0  0  0  0  0  0  0  0  0  0  0
   -0.8820   12.3640   20.1740 C   0  0  2  0  0  0  0  0  0  0  0  0
   -0.3430   12.3370   19.2190 H   0  0  0  0  0  0  0  0  0  0  0  0
   -0.5280   13.6790   20.8740 C   0  0  0  0  0  0  0  0  0  0  0  0
   -0.1080   13.5050   21.8710 H   0  0  0  0  0  0  0  0  0  0  0  0
    0.1970   14.2760   20.3090 H   0  0  0  0  0  0  0  0  0  0  0  0
   -1.4250   14.2960   21.0050 H   0  0  0  0  0  0  0  0  0  0  0  0
   -2.6820   12.2820   19.8220 S   0  0  0  0  0  0  0  0  0  0  0  0
   -2.6980   11.5220   18.2720 C   0  0  0  0  0  0  0  0  0  0  0  0
   -1.6870   10.9560   17.6540 N   0  0  0  0  0  0  0  0  0  0  0  0
   -2.1460   10.4800   16.4460 N   0  0  0  0  0  0  0  0  0  0  0  0
   -3.4250   10.7690   16.3680 C   0  0  0  0  0  0  0  0  0  0  0  0
   -3.8170   11.4250   17.4960 N   0  0  0  0  0  0  0  0  0  0  0  0
   -4.0820   10.5300   15.5430 H   0  0  0  0  0  0  0  0  0  0  0  0
   -5.1440   11.8990   17.7810 C   0  0  0  0  0  0  0  0  0  0  0  0
   -5.8510   11.0800   17.6300 H   0  0  0  0  0  0  0  0  0  0  0  0
   -5.3910   12.7220   17.1050 H   0  0  0  0  0  0  0  0  0  0  0  0
   -5.1760   12.2560   18.8140 H   0  0  0  0  0  0  0  0  0  0  0  0
  1  2  1  0  0  0  0
  2  7  1  0  0  0  0
  2  3  2  0  0  0  0
  3  8  1  0  0  0  0
  4  3  1  0  0  0  0
  4  9  1  0  0  0  0
  5  4  2  0  0  0  0
  6  1  2  0  0  0  0
  6  5  1  0  0  0  0
 10  6  1  0  0  0  0
 11 14  1  0  0  0  0
 11  5  1  0  0  0  0
 12 11  1  0  0  0  0
 13 12  2  0  0  0  0
 15 12  1  0  0  0  0
 15 16  1  0  0  0  0
 16 25  1  0  0  0  0
 17 16  2  0  0  0  0
 17 18  1  0  0  0  0
 18 26  1  0  0  0  0
 19 27  1  0  0  0  0
 19 18  2  0  0  0  0
 20 19  1  0  0  0  0
 21 22  1  0  0  0  0
 21 20  2  0  0  0  0
 22 17  1  0  0  0  0
 23 24  1  0  0  0  0
 23 22  2  0  0  0  0
 24 15  2  0  0  0  0
 28 20  1  0  0  0  0
 29 21  1  0  0  0  0
 30 23  1  0  0  0  0
 31 32  1  6  0  0  0
 31 33  1  0  0  0  0
 31  1  1  0  0  0  0
 33 36  1  0  0  0  0
 33 34  1  0  0  0  0
 35 33  1  0  0  0  0
 37 31  1  0  0  0  0
 38 37  1  0  0  0  0
 39 38  2  0  0  0  0
 40 39  1  0  0  0  0
 41 40  2  0  0  0  0
 41 42  1  0  0  0  0
 42 44  1  0  0  0  0
 42 38  1  0  0  0  0
 43 41  1  0  0  0  0
 44 47  1  0  0  0  0
 45 44  1  0  0  0  0
 46 44  1  0  0  0  0
M  END
>  <MODEL>
15

>  <REMARK>
 VINA RESULT:    -7.248      1.636      2.465
 INTER + INTRA:         -10.339
 INTER:                  -9.993
 INTRA:                  -0.346
 UNBOUND:                -0.548
  Name = 
  7 active torsions:
  status: ('A' for Active; 'I' for Inactive)
    1  A    between atoms: C_1  and  C_2
    2  A    between atoms: C_2  and  C_3
    3  A    between atoms: C_2  and  S_22
    4  A    between atoms: C_7  and  N_9
    5  A    between atoms: C_10  and  C_11
    6  A    between atoms: S_22  and  C_23
    7  A    between atoms: N_27  and  C_28
                            x       y       z     vdW  Elec       q    Type
                         _______ _______ _______ _____ _____    ______ ____

>  <TORSDO>
F 7

$$$$
=
 OpenBabel07192307433D

 47 50  0  0  1  0  0  0  0  0999 V2000
    2.2030    7.3720   19.5290 C   0  0  0  0  0  0  0  0  0  0  0  0
    2.3540    7.5480   18.1460 C   0  0  0  0  0  0  0  0  0  0  0  0
    1.8850    8.7030   17.5220 C   0  0  0  0  0  0  0  0  0  0  0  0
    1.2620    9.7060   18.2690 C   0  0  0  0  0  0  0  0  0  0  0  0
    1.1070    9.5610   19.6470 C   0  0  0  0  0  0  0  0  0  0  0  0
    1.5790    8.3960   20.2670 C   0  0  0  0  0  0  0  0  0  0  0  0
    2.8390    6.7840   17.5410 H   0  0  0  0  0  0  0  0  0  0  0  0
    2.0050    8.8290   16.4490 H   0  0  0  0  0  0  0  0  0  0  0  0
    0.9120   10.5890   17.7460 H   0  0  0  0  0  0  0  0  0  0  0  0
    1.4710    8.2850   21.3430 H   0  0  0  0  0  0  0  0  0  0  0  0
    0.4970   10.5240   20.4690 N   0  0  0  0  0  0  0  0  0  0  0  0
    0.8830   11.8300   20.6970 C   0  0  0  0  0  0  0  0  0  0  0  0
    1.8500   12.4140   20.2230 O   0  0  0  0  0  0  0  0  0  0  0  0
   -0.3430   10.2500   20.9750 H   0  0  0  0  0  0  0  0  0  0  0  0
   -0.0360   12.5480   21.6430 C   0  0  0  0  0  0  0  0  0  0  0  0
   -1.1440   11.8920   22.1670 C   0  0  0  0  0  0  0  0  0  0  0  0
   -1.9800   12.5890   23.0450 C   0  0  0  0  0  0  0  0  0  0  0  0
   -3.1160   11.9910   23.6130 C   0  0  0  0  0  0  0  0  0  0  0  0
   -3.9340   12.7080   24.4890 C   0  0  0  0  0  0  0  0  0  0  0  0
   -3.6290   14.0290   24.8070 C   0  0  0  0  0  0  0  0  0  0  0  0
   -2.5030   14.6380   24.2510 C   0  0  0  0  0  0  0  0  0  0  0  0
   -1.6720   13.9260   23.3680 C   0  0  0  0  0  0  0  0  0  0  0  0
   -0.5340   14.4880   22.7840 C   0  0  0  0  0  0  0  0  0  0  0  0
    0.2920   13.8400   21.9300 N   0  0  0  0  0  0  0  0  0  0  0  0
   -1.3450   10.8610   21.8930 H   0  0  0  0  0  0  0  0  0  0  0  0
   -3.3740   10.9590   23.3780 H   0  0  0  0  0  0  0  0  0  0  0  0
   -4.8120   12.2330   24.9220 H   0  0  0  0  0  0  0  0  0  0  0  0
   -4.2690   14.5850   25.4890 H   0  0  0  0  0  0  0  0  0  0  0  0
   -2.2800   15.6710   24.5110 H   0  0  0  0  0  0  0  0  0  0  0  0
   -0.2460   15.5150   22.9960 H   0  0  0  0  0  0  0  0  0  0  0  0
    2.7290    6.1040   20.1860 C   0  0  2  0  0  0  0  0  0  0  0  0
    3.0810    6.3680   21.1910 H   0  0  0  0  0  0  0  0  0  0  0  0
    3.9090    5.5000   19.4200 C   0  0  0  0  0  0  0  0  0  0  0  0
    4.2880    6.1870   18.6560 H   0  0  0  0  0  0  0  0  0  0  0  0
    4.7470    5.2370   20.0750 H   0  0  0  0  0  0  0  0  0  0  0  0
    3.6010    4.5830   18.9030 H   0  0  0  0  0  0  0  0  0  0  0  0
    1.3710    4.8790   20.3540 S   0  0  0  0  0  0  0  0  0  0  0  0
    1.9310    3.6000   19.3400 C   0  0  0  0  0  0  0  0  0  0  0  0
    1.7280    3.4600   18.0500 N   0  0  0  0  0  0  0  0  0  0  0  0
    2.3510    2.3000   17.6500 N   0  0  0  0  0  0  0  0  0  0  0  0
    2.9190    1.7700   18.7090 C   0  0  0  0  0  0  0  0  0  0  0  0
    2.6810    2.5550   19.7980 N   0  0  0  0  0  0  0  0  0  0  0  0
    3.4910    0.8530   18.7330 H   0  0  0  0  0  0  0  0  0  0  0  0
    3.1440    2.3080   21.1350 C   0  0  0  0  0  0  0  0  0  0  0  0
    2.4580    2.7830   21.8400 H   0  0  0  0  0  0  0  0  0  0  0  0
    4.1440    2.7320   21.2600 H   0  0  0  0  0  0  0  0  0  0  0  0
    3.1860    1.2280   21.3000 H   0  0  0  0  0  0  0  0  0  0  0  0
  1 31  1  0  0  0  0
  1  6  1  0  0  0  0
  2  1  2  0  0  0  0
  3  2  1  0  0  0  0
  3  4  2  0  0  0  0
  4  5  1  0  0  0  0
  5  6  2  0  0  0  0
  5 11  1  0  0  0  0
  6 10  1  0  0  0  0
  7  2  1  0  0  0  0
  8  3  1  0  0  0  0
  9  4  1  0  0  0  0
 11 12  1  0  0  0  0
 11 14  1  0  0  0  0
 12 15  1  0  0  0  0
 13 12  2  0  0  0  0
 15 24  2  0  0  0  0
 15 16  1  0  0  0  0
 16 17  2  0  0  0  0
 17 22  1  0  0  0  0
 17 18  1  0  0  0  0
 18 19  2  0  0  0  0
 19 20  1  0  0  0  0
 19 27  1  0  0  0  0
 20 28  1  0  0  0  0
 21 29  1  0  0  0  0
 21 20  2  0  0  0  0
 22 21  1  0  0  0  0
 23 30  1  0  0  0  0
 23 22  2  0  0  0  0
 24 23  1  0  0  0  0
 25 16  1  0  0  0  0
 26 18  1  0  0  0  0
 31 37  1  0  0  0  0
 31 32  1  1  0  0  0
 33 35  1  0  0  0  0
 33 31  1  0  0  0  0
 34 33  1  0  0  0  0
 36 33  1  0  0  0  0
 38 42  1  0  0  0  0
 38 37  1  0  0  0  0
 39 38  2  0  0  0  0
 40 39  1  0  0  0  0
 40 41  2  0  0  0  0
 41 43  1  0  0  0  0
 41 42  1  0  0  0  0
 42 44  1  0  0  0  0
 44 46  1  0  0  0  0
 44 47  1  0  0  0  0
 44 45  1  0  0  0  0
M  END
>  <MODEL>
16

>  <REMARK>
 VINA RESULT:    -7.219      3.919      9.748
 INTER + INTRA:         -10.299
 INTER:                  -9.866
 INTRA:                  -0.433
 UNBOUND:                -0.548
  Name = 
  7 active torsions:
  status: ('A' for Active; 'I' for Inactive)
    1  A    between atoms: C_1  and  C_2
    2  A    between atoms: C_2  and  C_3
    3  A    between atoms: C_2  and  S_22
    4  A    between atoms: C_7  and  N_9
    5  A    between atoms: C_10  and  C_11
    6  A    between atoms: S_22  and  C_23
    7  A    between atoms: N_27  and  C_28
                            x       y       z     vdW  Elec       q    Type
                         _______ _______ _______ _____ _____    ______ ____

>  <TORSDO>
F 7

$$$$
=
 OpenBabel07192307433D

 47 50  0  0  1  0  0  0  0  0999 V2000
    2.9560    3.8270   18.8950 C   0  0  0  0  0  0  0  0  0  0  0  0
    3.0270    2.7550   19.7970 C   0  0  0  0  0  0  0  0  0  0  0  0
    2.5480    2.8890   21.0990 C   0  0  0  0  0  0  0  0  0  0  0  0
    1.9840    4.0960   21.5220 C   0  0  0  0  0  0  0  0  0  0  0  0
    1.8920    5.1750   20.6450 C   0  0  0  0  0  0  0  0  0  0  0  0
    2.3780    5.0320   19.3370 C   0  0  0  0  0  0  0  0  0  0  0  0
    3.4580    1.8020   19.4910 H   0  0  0  0  0  0  0  0  0  0  0  0
    2.6090    2.0540   21.7910 H   0  0  0  0  0  0  0  0  0  0  0  0
    1.6220    4.1600   22.5430 H   0  0  0  0  0  0  0  0  0  0  0  0
    2.2970    5.8680   18.6460 H   0  0  0  0  0  0  0  0  0  0  0  0
    1.3360    6.4170   20.9910 N   0  0  0  0  0  0  0  0  0  0  0  0
    1.5610    7.6520   20.4130 C   0  0  0  0  0  0  0  0  0  0  0  0
    2.3030    7.9100   19.4730 O   0  0  0  0  0  0  0  0  0  0  0  0
    0.6760    6.4410   21.7650 H   0  0  0  0  0  0  0  0  0  0  0  0
    0.7690    8.7490   21.0660 C   0  0  0  0  0  0  0  0  0  0  0  0
    0.1180    9.6950   20.2840 C   0  0  0  0  0  0  0  0  0  0  0  0
   -0.6110   10.7030   20.9230 C   0  0  0  0  0  0  0  0  0  0  0  0
   -1.2940   11.6920   20.1970 C   0  0  0  0  0  0  0  0  0  0  0  0
   -2.0170   12.6880   20.8600 C   0  0  0  0  0  0  0  0  0  0  0  0
   -2.0660   12.7080   22.2510 C   0  0  0  0  0  0  0  0  0  0  0  0
   -1.3920   11.7310   22.9870 C   0  0  0  0  0  0  0  0  0  0  0  0
   -0.6620   10.7240   22.3310 C   0  0  0  0  0  0  0  0  0  0  0  0
    0.0300    9.7230   23.0190 C   0  0  0  0  0  0  0  0  0  0  0  0
    0.7450    8.7370   22.4290 N   0  0  0  0  0  0  0  0  0  0  0  0
    0.1820    9.6430   19.2010 H   0  0  0  0  0  0  0  0  0  0  0  0
   -1.2690   11.6970   19.1090 H   0  0  0  0  0  0  0  0  0  0  0  0
   -2.5410   13.4490   20.2870 H   0  0  0  0  0  0  0  0  0  0  0  0
   -2.6290   13.4840   22.7640 H   0  0  0  0  0  0  0  0  0  0  0  0
   -1.4420   11.7610   24.0730 H   0  0  0  0  0  0  0  0  0  0  0  0
    0.0270    9.6880   24.1060 H   0  0  0  0  0  0  0  0  0  0  0  0
    3.4810    3.6510   17.4780 C   0  0  2  0  0  0  0  0  0  0  0  0
    2.6260    3.4250   16.8280 H   0  0  0  0  0  0  0  0  0  0  0  0
    4.4750    2.4910   17.3660 C   0  0  0  0  0  0  0  0  0  0  0  0
    4.2010    1.8030   16.5600 H   0  0  0  0  0  0  0  0  0  0  0  0
    5.5000    2.8310   17.1790 H   0  0  0  0  0  0  0  0  0  0  0  0
    4.4900    1.9100   18.2960 H   0  0  0  0  0  0  0  0  0  0  0  0
    4.2450    5.2170   16.8980 S   0  0  0  0  0  0  0  0  0  0  0  0
    5.7280    5.2260   17.7810 C   0  0  0  0  0  0  0  0  0  0  0  0
    5.8940    5.5050   19.0530 N   0  0  0  0  0  0  0  0  0  0  0  0
    7.2370    5.3910   19.3370 N   0  0  0  0  0  0  0  0  0  0  0  0
    7.8470    5.0430   18.2270 C   0  0  0  0  0  0  0  0  0  0  0  0
    6.9370    4.9260   17.2200 N   0  0  0  0  0  0  0  0  0  0  0  0
    8.9090    4.8700   18.1120 H   0  0  0  0  0  0  0  0  0  0  0  0
    7.2220    4.5560   15.8610 C   0  0  0  0  0  0  0  0  0  0  0  0
    8.1340    5.0650   15.5410 H   0  0  0  0  0  0  0  0  0  0  0  0
    6.3920    4.8610   15.2180 H   0  0  0  0  0  0  0  0  0  0  0  0
    7.3410    3.4710   15.8100 H   0  0  0  0  0  0  0  0  0  0  0  0
  1  6  2  0  0  0  0
  1  2  1  0  0  0  0
  2  3  2  0  0  0  0
  3  4  1  0  0  0  0
  3  8  1  0  0  0  0
  4  9  1  0  0  0  0
  5 11  1  0  0  0  0
  5  4  2  0  0  0  0
  6  5  1  0  0  0  0
  7  2  1  0  0  0  0
 10  6  1  0  0  0  0
 11 14  1  0  0  0  0
 12 11  1  0  0  0  0
 12 15  1  0  0  0  0
 13 12  2  0  0  0  0
 15 24  1  0  0  0  0
 16 17  1  0  0  0  0
 16 15  2  0  0  0  0
 17 22  1  0  0  0  0
 18 19  1  0  0  0  0
 18 17  2  0  0  0  0
 19 20  2  0  0  0  0
 20 28  1  0  0  0  0
 20 21  1  0  0  0  0
 21 29  1  0  0  0  0
 22 21  2  0  0  0  0
 22 23  1  0  0  0  0
 23 30  1  0  0  0  0
 24 23  2  0  0  0  0
 25 16  1  0  0  0  0
 26 18  1  0  0  0  0
 27 19  1  0  0  0  0
 31 32  1  6  0  0  0
 31  1  1  0  0  0  0
 33 31  1  0  0  0  0
 33 36  1  0  0  0  0
 34 33  1  0  0  0  0
 35 33  1  0  0  0  0
 37 31  1  0  0  0  0
 37 38  1  0  0  0  0
 38 39  2  0  0  0  0
 39 40  1  0  0  0  0
 41 40  2  0  0  0  0
 42 38  1  0  0  0  0
 42 41  1  0  0  0  0
 43 41  1  0  0  0  0
 44 42  1  0  0  0  0
 45 44  1  0  0  0  0
 46 44  1  0  0  0  0
 47 44  1  0  0  0  0
M  END
>  <MODEL>
17

>  <REMARK>
 VINA RESULT:    -7.194      3.660      9.198
 INTER + INTRA:         -10.266
 INTER:                  -9.923
 INTRA:                  -0.343
 UNBOUND:                -0.548
  Name = 
  7 active torsions:
  status: ('A' for Active; 'I' for Inactive)
    1  A    between atoms: C_1  and  C_2
    2  A    between atoms: C_2  and  C_3
    3  A    between atoms: C_2  and  S_22
    4  A    between atoms: C_7  and  N_9
    5  A    between atoms: C_10  and  C_11
    6  A    between atoms: S_22  and  C_23
    7  A    between atoms: N_27  and  C_28
                            x       y       z     vdW  Elec       q    Type
                         _______ _______ _______ _____ _____    ______ ____

>  <TORSDO>
F 7

$$$$
=
 OpenBabel07192307433D

 47 50  0  0  1  0  0  0  0  0999 V2000
   -0.4920   11.2140   21.0530 C   0  0  0  0  0  0  0  0  0  0  0  0
   -0.7180   10.9850   22.4170 C   0  0  0  0  0  0  0  0  0  0  0  0
   -0.2330    9.8330   23.0340 C   0  0  0  0  0  0  0  0  0  0  0  0
    0.4930    8.8920   22.2990 C   0  0  0  0  0  0  0  0  0  0  0  0
    0.7400    9.0970   20.9430 C   0  0  0  0  0  0  0  0  0  0  0  0
    0.2470   10.2580   20.3300 C   0  0  0  0  0  0  0  0  0  0  0  0
   -1.2770   11.7040   23.0140 H   0  0  0  0  0  0  0  0  0  0  0  0
   -0.4150    9.6630   24.0920 H   0  0  0  0  0  0  0  0  0  0  0  0
    0.8530    8.0090   22.8160 H   0  0  0  0  0  0  0  0  0  0  0  0
    0.4480   10.4280   19.2750 H   0  0  0  0  0  0  0  0  0  0  0  0
    1.4630    8.2030   20.1370 N   0  0  0  0  0  0  0  0  0  0  0  0
    2.0080    8.4200   18.8860 C   0  0  0  0  0  0  0  0  0  0  0  0
    1.9640    9.4500   18.2230 O   0  0  0  0  0  0  0  0  0  0  0  0
    1.6230    7.2640   20.4970 H   0  0  0  0  0  0  0  0  0  0  0  0
    2.7180    7.2110   18.3470 C   0  0  0  0  0  0  0  0  0  0  0  0
    3.7000    7.3590   17.3750 C   0  0  0  0  0  0  0  0  0  0  0  0
    4.3430    6.2130   16.8950 C   0  0  0  0  0  0  0  0  0  0  0  0
    5.3450    6.2850   15.9140 C   0  0  0  0  0  0  0  0  0  0  0  0
    5.9720    5.1260   15.4520 C   0  0  0  0  0  0  0  0  0  0  0  0
    5.6070    3.8830   15.9620 C   0  0  0  0  0  0  0  0  0  0  0  0
    4.6130    3.7930   16.9380 C   0  0  0  0  0  0  0  0  0  0  0  0
    3.9750    4.9540   17.4110 C   0  0  0  0  0  0  0  0  0  0  0  0
    2.9730    4.9210   18.3860 C   0  0  0  0  0  0  0  0  0  0  0  0
    2.3330    6.0120   18.8680 N   0  0  0  0  0  0  0  0  0  0  0  0
    3.9550    8.3470   17.0050 H   0  0  0  0  0  0  0  0  0  0  0  0
    5.6460    7.2460   15.5010 H   0  0  0  0  0  0  0  0  0  0  0  0
    6.7470    5.1950   14.6920 H   0  0  0  0  0  0  0  0  0  0  0  0
    6.0980    2.9820   15.6000 H   0  0  0  0  0  0  0  0  0  0  0  0
    4.3410    2.8140   17.3260 H   0  0  0  0  0  0  0  0  0  0  0  0
    2.6480    3.9790   18.8210 H   0  0  0  0  0  0  0  0  0  0  0  0
   -1.0280   12.4830   20.4050 C   0  0  2  0  0  0  0  0  0  0  0  0
   -1.0890   13.2560   21.1810 H   0  0  0  0  0  0  0  0  0  0  0  0
   -2.4330   12.2890   19.8250 C   0  0  0  0  0  0  0  0  0  0  0  0
   -2.4620   12.5220   18.7560 H   0  0  0  0  0  0  0  0  0  0  0  0
   -2.8050   11.2660   19.9520 H   0  0  0  0  0  0  0  0  0  0  0  0
   -3.1470   12.9580   20.3210 H   0  0  0  0  0  0  0  0  0  0  0  0
    0.1350   13.0590   19.1070 S   0  0  0  0  0  0  0  0  0  0  0  0
    1.3620   13.8190   20.0540 C   0  0  0  0  0  0  0  0  0  0  0  0
    1.2900   14.1650   21.3180 N   0  0  0  0  0  0  0  0  0  0  0  0
    2.4930   14.7390   21.6660 N   0  0  0  0  0  0  0  0  0  0  0  0
    3.2620   14.7200   20.6010 C   0  0  0  0  0  0  0  0  0  0  0  0
    2.5920   14.1490   19.5610 N   0  0  0  0  0  0  0  0  0  0  0  0
    4.2750   15.0950   20.5410 H   0  0  0  0  0  0  0  0  0  0  0  0
    3.1050   13.9460   18.2340 C   0  0  0  0  0  0  0  0  0  0  0  0
    4.1810   13.7640   18.2960 H   0  0  0  0  0  0  0  0  0  0  0  0
    2.9220   14.8400   17.6310 H   0  0  0  0  0  0  0  0  0  0  0  0
    2.5900   13.0940   17.7840 H   0  0  0  0  0  0  0  0  0  0  0  0
  1  2  1  0  0  0  0
  2  7  1  0  0  0  0
  2  3  2  0  0  0  0
  3  8  1  0  0  0  0
  4  9  1  0  0  0  0
  4  3  1  0  0  0  0
  5  4  2  0  0  0  0
  6  5  1  0  0  0  0
  6  1  2  0  0  0  0
 10  6  1  0  0  0  0
 11 14  1  0  0  0  0
 11  5  1  0  0  0  0
 12 11  1  0  0  0  0
 13 12  2  0  0  0  0
 15 24  1  0  0  0  0
 15 12  1  0  0  0  0
 16 15  2  0  0  0  0
 17 16  1  0  0  0  0
 17 22  1  0  0  0  0
 18 17  2  0  0  0  0
 19 18  1  0  0  0  0
 19 20  2  0  0  0  0
 20 21  1  0  0  0  0
 21 29  1  0  0  0  0
 21 22  2  0  0  0  0
 22 23  1  0  0  0  0
 23 30  1  0  0  0  0
 23 24  2  0  0  0  0
 25 16  1  0  0  0  0
 26 18  1  0  0  0  0
 27 19  1  0  0  0  0
 28 20  1  0  0  0  0
 31  1  1  0  0  0  0
 31 32  1  1  0  0  0
 33 35  1  0  0  0  0
 33 36  1  0  0  0  0
 33 31  1  0  0  0  0
 34 33  1  0  0  0  0
 37 38  1  0  0  0  0
 37 31  1  0  0  0  0
 38 39  2  0  0  0  0
 39 40  1  0  0  0  0
 41 40  2  0  0  0  0
 42 38  1  0  0  0  0
 42 41  1  0  0  0  0
 43 41  1  0  0  0  0
 44 45  1  0  0  0  0
 44 42  1  0  0  0  0
 46 44  1  0  0  0  0
 47 44  1  0  0  0  0
M  END
>  <MODEL>
18

>  <REMARK>
 VINA RESULT:    -7.154      2.839      4.029
 INTER + INTRA:         -10.211
 INTER:                  -9.933
 INTRA:                  -0.278
 UNBOUND:                -0.548
  Name = 
  7 active torsions:
  status: ('A' for Active; 'I' for Inactive)
    1  A    between atoms: C_1  and  C_2
    2  A    between atoms: C_2  and  C_3
    3  A    between atoms: C_2  and  S_22
    4  A    between atoms: C_7  and  N_9
    5  A    between atoms: C_10  and  C_11
    6  A    between atoms: S_22  and  C_23
    7  A    between atoms: N_27  and  C_28
                            x       y       z     vdW  Elec       q    Type
                         _______ _______ _______ _____ _____    ______ ____

>  <TORSDO>
F 7

$$$$
=
 OpenBabel07192307433D

 47 50  0  0  1  0  0  0  0  0999 V2000
   -0.6900   11.6590   19.2270 C   0  0  0  0  0  0  0  0  0  0  0  0
    0.1180   12.7730   18.9570 C   0  0  0  0  0  0  0  0  0  0  0  0
    1.4460   12.6110   18.5680 C   0  0  0  0  0  0  0  0  0  0  0  0
    1.9910   11.3310   18.4370 C   0  0  0  0  0  0  0  0  0  0  0  0
    1.2100   10.2050   18.6900 C   0  0  0  0  0  0  0  0  0  0  0  0
   -0.1260   10.3770   19.0820 C   0  0  0  0  0  0  0  0  0  0  0  0
   -0.2830   13.7820   19.0480 H   0  0  0  0  0  0  0  0  0  0  0  0
    2.0640   13.4810   18.3630 H   0  0  0  0  0  0  0  0  0  0  0  0
    3.0290   11.2460   18.1320 H   0  0  0  0  0  0  0  0  0  0  0  0
   -0.7420    9.5010   19.2690 H   0  0  0  0  0  0  0  0  0  0  0  0
    1.6800    8.8860   18.5760 N   0  0  0  0  0  0  0  0  0  0  0  0
    1.9130    7.9660   19.5800 C   0  0  0  0  0  0  0  0  0  0  0  0
    1.7560    8.1230   20.7850 O   0  0  0  0  0  0  0  0  0  0  0  0
    1.8830    8.5350   17.6430 H   0  0  0  0  0  0  0  0  0  0  0  0
    2.4120    6.6510   19.0540 C   0  0  0  0  0  0  0  0  0  0  0  0
    1.9270    5.4610   19.5840 C   0  0  0  0  0  0  0  0  0  0  0  0
    2.4120    4.2540   19.0720 C   0  0  0  0  0  0  0  0  0  0  0  0
    1.9670    3.0140   19.5580 C   0  0  0  0  0  0  0  0  0  0  0  0
    2.4670    1.8220   19.0290 C   0  0  0  0  0  0  0  0  0  0  0  0
    3.4150    1.8530   18.0090 C   0  0  0  0  0  0  0  0  0  0  0  0
    3.8670    3.0770   17.5140 C   0  0  0  0  0  0  0  0  0  0  0  0
    3.3720    4.2840   18.0390 C   0  0  0  0  0  0  0  0  0  0  0  0
    3.7900    5.5360   17.5810 C   0  0  0  0  0  0  0  0  0  0  0  0
    3.3410    6.7200   18.0580 N   0  0  0  0  0  0  0  0  0  0  0  0
    1.1870    5.4820   20.3790 H   0  0  0  0  0  0  0  0  0  0  0  0
    1.2280    2.9660   20.3550 H   0  0  0  0  0  0  0  0  0  0  0  0
    2.1150    0.8680   19.4140 H   0  0  0  0  0  0  0  0  0  0  0  0
    3.8020    0.9230   17.5990 H   0  0  0  0  0  0  0  0  0  0  0  0
    4.6080    3.0830   16.7170 H   0  0  0  0  0  0  0  0  0  0  0  0
    4.5280    5.6220   16.7860 H   0  0  0  0  0  0  0  0  0  0  0  0
   -2.1380   11.8650   19.6440 C   0  0  2  0  0  0  0  0  0  0  0  0
   -2.3910   11.0880   20.3760 H   0  0  0  0  0  0  0  0  0  0  0  0
   -3.1060   11.7310   18.4650 C   0  0  0  0  0  0  0  0  0  0  0  0
   -3.9930   12.3600   18.5980 H   0  0  0  0  0  0  0  0  0  0  0  0
   -2.6470   12.0050   17.5090 H   0  0  0  0  0  0  0  0  0  0  0  0
   -3.4560   10.6960   18.3720 H   0  0  0  0  0  0  0  0  0  0  0  0
   -2.3270   13.5020   20.4550 S   0  0  0  0  0  0  0  0  0  0  0  0
   -3.1720   13.0780   21.8990 C   0  0  0  0  0  0  0  0  0  0  0  0
   -4.4210   13.3490   22.1980 N   0  0  0  0  0  0  0  0  0  0  0  0
   -4.6780   12.8260   23.4460 N   0  0  0  0  0  0  0  0  0  0  0  0
   -3.5760   12.2480   23.8660 C   0  0  0  0  0  0  0  0  0  0  0  0
   -2.6000   12.3810   22.9240 N   0  0  0  0  0  0  0  0  0  0  0  0
   -3.4440   11.7390   24.8120 H   0  0  0  0  0  0  0  0  0  0  0  0
   -1.2580   11.8750   23.0200 C   0  0  0  0  0  0  0  0  0  0  0  0
   -0.9030   11.6240   22.0170 H   0  0  0  0  0  0  0  0  0  0  0  0
   -1.2510   10.9760   23.6430 H   0  0  0  0  0  0  0  0  0  0  0  0
   -0.6250   12.6390   23.4780 H   0  0  0  0  0  0  0  0  0  0  0  0
  1 31  1  0  0  0  0
  2  7  1  0  0  0  0
  2  1  2  0  0  0  0
  3  2  1  0  0  0  0
  4  3  2  0  0  0  0
  4  5  1  0  0  0  0
  5  6  2  0  0  0  0
  6  1  1  0  0  0  0
  6 10  1  0  0  0  0
  8  3  1  0  0  0  0
  9  4  1  0  0  0  0
 11  5  1  0  0  0  0
 11 12  1  0  0  0  0
 12 13  2  0  0  0  0
 14 11  1  0  0  0  0
 15 12  1  0  0  0  0
 15 16  1  0  0  0  0
 16 25  1  0  0  0  0
 17 18  1  0  0  0  0
 17 16  2  0  0  0  0
 18 26  1  0  0  0  0
 19 27  1  0  0  0  0
 19 18  2  0  0  0  0
 20 19  1  0  0  0  0
 21 20  2  0  0  0  0
 21 22  1  0  0  0  0
 22 17  1  0  0  0  0
 23 22  2  0  0  0  0
 23 24  1  0  0  0  0
 24 15  2  0  0  0  0
 28 20  1  0  0  0  0
 29 21  1  0  0  0  0
 30 23  1  0  0  0  0
 31 32  1  1  0  0  0
 31 37  1  0  0  0  0
 33 34  1  0  0  0  0
 33 31  1  0  0  0  0
 35 33  1  0  0  0  0
 36 33  1  0  0  0  0
 37 38  1  0  0  0  0
 38 39  2  0  0  0  0
 38 42  1  0  0  0  0
 39 40  1  0  0  0  0
 40 41  2  0  0  0  0
 41 43  1  0  0  0  0
 42 44  1  0  0  0  0
 42 41  1  0  0  0  0
 44 47  1  0  0  0  0
 44 46  1  0  0  0  0
 45 44  1  0  0  0  0
M  END
>  <MODEL>
19

>  <REMARK>
 VINA RESULT:    -7.121      2.819      4.336
 INTER + INTRA:         -10.167
 INTER:                  -9.564
 INTRA:                  -0.603
 UNBOUND:                -0.548
  Name = 
  7 active torsions:
  status: ('A' for Active; 'I' for Inactive)
    1  A    between atoms: C_1  and  C_2
    2  A    between atoms: C_2  and  C_3
    3  A    between atoms: C_2  and  S_22
    4  A    between atoms: C_7  and  N_9
    5  A    between atoms: C_10  and  C_11
    6  A    between atoms: S_22  and  C_23
    7  A    between atoms: N_27  and  C_28
                            x       y       z     vdW  Elec       q    Type
                         _______ _______ _______ _____ _____    ______ ____

>  <TORSDO>
F 7

$$$$
=
 OpenBabel07192307433D

 47 50  0  0  1  0  0  0  0  0999 V2000
    0.5540   12.4010   19.2210 C   0  0  0  0  0  0  0  0  0  0  0  0
   -0.8300   12.4260   18.9940 C   0  0  0  0  0  0  0  0  0  0  0  0
   -1.4920   11.2960   18.5150 C   0  0  0  0  0  0  0  0  0  0  0  0
   -0.7840   10.1190   18.2590 C   0  0  0  0  0  0  0  0  0  0  0  0
    0.5910   10.0630   18.4830 C   0  0  0  0  0  0  0  0  0  0  0  0
    1.2500   11.2040   18.9640 C   0  0  0  0  0  0  0  0  0  0  0  0
   -1.4060   13.3290   19.1900 H   0  0  0  0  0  0  0  0  0  0  0  0
   -2.5640   11.3260   18.3410 H   0  0  0  0  0  0  0  0  0  0  0  0
   -1.3350    9.2630   17.8870 H   0  0  0  0  0  0  0  0  0  0  0  0
    2.3200   11.1600   19.1520 H   0  0  0  0  0  0  0  0  0  0  0  0
    1.3730    8.9180   18.2560 N   0  0  0  0  0  0  0  0  0  0  0  0
    1.8950    8.0350   19.1810 C   0  0  0  0  0  0  0  0  0  0  0  0
    1.7790    8.0780   20.4000 O   0  0  0  0  0  0  0  0  0  0  0  0
    1.6000    8.6840   17.2910 H   0  0  0  0  0  0  0  0  0  0  0  0
    2.6780    6.9240   18.5410 C   0  0  0  0  0  0  0  0  0  0  0  0
    3.6070    7.2120   17.5480 C   0  0  0  0  0  0  0  0  0  0  0  0
    4.3200    6.1550   16.9730 C   0  0  0  0  0  0  0  0  0  0  0  0
    5.2740    6.3700   15.9650 C   0  0  0  0  0  0  0  0  0  0  0  0
    5.9730    5.2980   15.4080 C   0  0  0  0  0  0  0  0  0  0  0  0
    5.7300    4.0000   15.8490 C   0  0  0  0  0  0  0  0  0  0  0  0
    4.7850    3.7680   16.8510 C   0  0  0  0  0  0  0  0  0  0  0  0
    4.0750    4.8400   17.4190 C   0  0  0  0  0  0  0  0  0  0  0  0
    3.1180    4.6650   18.4230 C   0  0  0  0  0  0  0  0  0  0  0  0
    2.4120    5.6670   18.9960 N   0  0  0  0  0  0  0  0  0  0  0  0
    3.7660    8.2390   17.2330 H   0  0  0  0  0  0  0  0  0  0  0  0
    5.4790    7.3770   15.6050 H   0  0  0  0  0  0  0  0  0  0  0  0
    6.7090    5.4770   14.6280 H   0  0  0  0  0  0  0  0  0  0  0  0
    6.2760    3.1660   15.4130 H   0  0  0  0  0  0  0  0  0  0  0  0
    4.6080    2.7480   17.1830 H   0  0  0  0  0  0  0  0  0  0  0  0
    2.8870    3.6740   18.8070 H   0  0  0  0  0  0  0  0  0  0  0  0
    1.2510   13.6460   19.7490 C   0  0  2  0  0  0  0  0  0  0  0  0
    1.7370   13.3820   20.6960 H   0  0  0  0  0  0  0  0  0  0  0  0
    0.2680   14.7860   20.0290 C   0  0  0  0  0  0  0  0  0  0  0  0
   -0.2090   15.1420   19.1100 H   0  0  0  0  0  0  0  0  0  0  0  0
   -0.5280   14.4960   20.7250 H   0  0  0  0  0  0  0  0  0  0  0  0
    0.7910   15.6420   20.4740 H   0  0  0  0  0  0  0  0  0  0  0  0
    2.5470   14.1850   18.5660 S   0  0  0  0  0  0  0  0  0  0  0  0
    3.8440   14.5860   19.6320 C   0  0  0  0  0  0  0  0  0  0  0  0
    3.7970   14.6800   20.9400 N   0  0  0  0  0  0  0  0  0  0  0  0
    5.0550   15.0240   21.3830 N   0  0  0  0  0  0  0  0  0  0  0  0
    5.8310   15.1250   20.3280 C   0  0  0  0  0  0  0  0  0  0  0  0
    5.1110   14.8580   19.2020 N   0  0  0  0  0  0  0  0  0  0  0  0
    6.8820   15.3800   20.3320 H   0  0  0  0  0  0  0  0  0  0  0  0
    5.6140   14.8620   17.8560 C   0  0  0  0  0  0  0  0  0  0  0  0
    6.6920   15.0440   17.8820 H   0  0  0  0  0  0  0  0  0  0  0  0
    5.1260   15.6580   17.2860 H   0  0  0  0  0  0  0  0  0  0  0  0
    5.3930   13.8970   17.3930 H   0  0  0  0  0  0  0  0  0  0  0  0
  1 31  1  0  0  0  0
  2  7  1  0  0  0  0
  2  1  1  0  0  0  0
  3  2  2  0  0  0  0
  4  5  2  0  0  0  0
  4  3  1  0  0  0  0
  5  6  1  0  0  0  0
  6 10  1  0  0  0  0
  6  1  2  0  0  0  0
  8  3  1  0  0  0  0
  9  4  1  0  0  0  0
 11  5  1  0  0  0  0
 11 12  1  0  0  0  0
 12 13  2  0  0  0  0
 14 11  1  0  0  0  0
 15 24  1  0  0  0  0
 15 12  1  0  0  0  0
 16 15  2  0  0  0  0
 17 22  1  0  0  0  0
 17 16  1  0  0  0  0
 18 17  2  0  0  0  0
 19 20  2  0  0  0  0
 19 18  1  0  0  0  0
 20 21  1  0  0  0  0
 21 29  1  0  0  0  0
 21 22  2  0  0  0  0
 22 23  1  0  0  0  0
 23 30  1  0  0  0  0
 23 24  2  0  0  0  0
 25 16  1  0  0  0  0
 26 18  1  0  0  0  0
 27 19  1  0  0  0  0
 28 20  1  0  0  0  0
 31 33  1  0  0  0  0
 31 32  1  1  0  0  0
 33 36  1  0  0  0  0
 33 35  1  0  0  0  0
 34 33  1  0  0  0  0
 37 38  1  0  0  0  0
 37 31  1  0  0  0  0
 38 39  2  0  0  0  0
 39 40  1  0  0  0  0
 41 43  1  0  0  0  0
 41 40  2  0  0  0  0
 42 38  1  0  0  0  0
 42 41  1  0  0  0  0
 44 45  1  0  0  0  0
 44 42  1  0  0  0  0
 46 44  1  0  0  0  0
 47 44  1  0  0  0  0
M  END
>  <MODEL>
20

>  <REMARK>
 VINA RESULT:    -7.114      3.531      5.104
 INTER + INTRA:         -10.157
 INTER:                  -9.426
 INTRA:                  -0.732
 UNBOUND:                -0.548
  Name = 
  7 active torsions:
  status: ('A' for Active; 'I' for Inactive)
    1  A    between atoms: C_1  and  C_2
    2  A    between atoms: C_2  and  C_3
    3  A    between atoms: C_2  and  S_22
    4  A    between atoms: C_7  and  N_9
    5  A    between atoms: C_10  and  C_11
    6  A    between atoms: S_22  and  C_23
    7  A    between atoms: N_27  and  C_28
                            x       y       z     vdW  Elec       q    Type
                         _______ _______ _______ _____ _____    ______ ____

>  <TORSDO>
F 7

$$$$
=
 OpenBabel07192307433D

 47 50  0  0  1  0  0  0  0  0999 V2000
    3.2790    5.8710   19.0010 C   0  0  0  0  0  0  0  0  0  0  0  0
    2.6930    4.7100   19.5260 C   0  0  0  0  0  0  0  0  0  0  0  0
    1.6410    4.7950   20.4360 C   0  0  0  0  0  0  0  0  0  0  0  0
    1.1500    6.0410   20.8320 C   0  0  0  0  0  0  0  0  0  0  0  0
    1.7070    7.2110   20.3200 C   0  0  0  0  0  0  0  0  0  0  0  0
    2.7670    7.1180   19.4060 C   0  0  0  0  0  0  0  0  0  0  0  0
    3.0540    3.7260   19.2300 H   0  0  0  0  0  0  0  0  0  0  0  0
    1.1950    3.8890   20.8390 H   0  0  0  0  0  0  0  0  0  0  0  0
    0.3300    6.0650   21.5420 H   0  0  0  0  0  0  0  0  0  0  0  0
    3.1960    8.0280   18.9950 H   0  0  0  0  0  0  0  0  0  0  0  0
    1.2690    8.5010   20.6650 N   0  0  0  0  0  0  0  0  0  0  0  0
    0.8850    9.5310   19.8280 C   0  0  0  0  0  0  0  0  0  0  0  0
    0.8540    9.5240   18.6030 O   0  0  0  0  0  0  0  0  0  0  0  0
    1.2170    8.7350   21.6540 H   0  0  0  0  0  0  0  0  0  0  0  0
    0.4740   10.7640   20.5810 C   0  0  0  0  0  0  0  0  0  0  0  0
   -0.6020   10.7150   21.4590 C   0  0  0  0  0  0  0  0  0  0  0  0
   -0.9600   11.8800   22.1450 C   0  0  0  0  0  0  0  0  0  0  0  0
   -2.0350   11.9040   23.0480 C   0  0  0  0  0  0  0  0  0  0  0  0
   -2.3710   13.0810   23.7220 C   0  0  0  0  0  0  0  0  0  0  0  0
   -1.6390   14.2450   23.5020 C   0  0  0  0  0  0  0  0  0  0  0  0
   -0.5670   14.2380   22.6080 C   0  0  0  0  0  0  0  0  0  0  0  0
   -0.2200   13.0590   21.9240 C   0  0  0  0  0  0  0  0  0  0  0  0
    0.8430   12.9960   21.0190 C   0  0  0  0  0  0  0  0  0  0  0  0
    1.2110   11.8850   20.3400 N   0  0  0  0  0  0  0  0  0  0  0  0
   -1.1460    9.7850   21.6020 H   0  0  0  0  0  0  0  0  0  0  0  0
   -2.6210   11.0060   23.2350 H   0  0  0  0  0  0  0  0  0  0  0  0
   -3.2060   13.0870   24.4180 H   0  0  0  0  0  0  0  0  0  0  0  0
   -1.9030   15.1600   24.0290 H   0  0  0  0  0  0  0  0  0  0  0  0
   -0.0060   15.1560   22.4490 H   0  0  0  0  0  0  0  0  0  0  0  0
    1.4500   13.8740   20.8090 H   0  0  0  0  0  0  0  0  0  0  0  0
    4.4230    5.7500   18.0050 C   0  0  2  0  0  0  0  0  0  0  0  0
    5.3640    5.8360   18.5610 H   0  0  0  0  0  0  0  0  0  0  0  0
    4.3970    6.8620   16.9520 C   0  0  0  0  0  0  0  0  0  0  0  0
    3.6560    7.6300   17.1970 H   0  0  0  0  0  0  0  0  0  0  0  0
    5.3660    7.3610   16.8410 H   0  0  0  0  0  0  0  0  0  0  0  0
    4.1280    6.4540   15.9710 H   0  0  0  0  0  0  0  0  0  0  0  0
    4.3790    4.0980   17.2020 S   0  0  0  0  0  0  0  0  0  0  0  0
    5.4990    4.3130   15.9060 C   0  0  0  0  0  0  0  0  0  0  0  0
    5.2350    4.3220   14.6200 N   0  0  0  0  0  0  0  0  0  0  0  0
    6.4210    4.5220   13.9490 N   0  0  0  0  0  0  0  0  0  0  0  0
    7.3710    4.6320   14.8500 C   0  0  0  0  0  0  0  0  0  0  0  0
    6.8370    4.5070   16.0970 N   0  0  0  0  0  0  0  0  0  0  0  0
    8.4210    4.7970   14.6500 H   0  0  0  0  0  0  0  0  0  0  0  0
    7.5600    4.5770   17.3370 C   0  0  0  0  0  0  0  0  0  0  0  0
    8.1790    5.4780   17.3340 H   0  0  0  0  0  0  0  0  0  0  0  0
    8.2010    3.6970   17.4360 H   0  0  0  0  0  0  0  0  0  0  0  0
    6.8440    4.5990   18.1620 H   0  0  0  0  0  0  0  0  0  0  0  0
  1  6  2  0  0  0  0
  1  2  1  0  0  0  0
  2  3  2  0  0  0  0
  3  4  1  0  0  0  0
  3  8  1  0  0  0  0
  4  9  1  0  0  0  0
  5 11  1  0  0  0  0
  5  4  2  0  0  0  0
  6  5  1  0  0  0  0
  7  2  1  0  0  0  0
 10  6  1  0  0  0  0
 11 14  1  0  0  0  0
 12 15  1  0  0  0  0
 12 11  1  0  0  0  0
 13 12  2  0  0  0  0
 15 16  1  0  0  0  0
 16 25  1  0  0  0  0
 16 17  2  0  0  0  0
 17 18  1  0  0  0  0
 18 26  1  0  0  0  0
 18 19  2  0  0  0  0
 19 27  1  0  0  0  0
 20 19  1  0  0  0  0
 20 28  1  0  0  0  0
 21 20  2  0  0  0  0
 22 17  1  0  0  0  0
 22 21  1  0  0  0  0
 23 22  2  0  0  0  0
 24 15  2  0  0  0  0
 24 23  1  0  0  0  0
 29 21  1  0  0  0  0
 30 23  1  0  0  0  0
 31 32  1  1  0  0  0
 31  1  1  0  0  0  0
 33 34  1  0  0  0  0
 33 31  1  0  0  0  0
 35 33  1  0  0  0  0
 36 33  1  0  0  0  0
 37 31  1  0  0  0  0
 38 42  1  0  0  0  0
 38 37  1  0  0  0  0
 39 38  2  0  0  0  0
 40 39  1  0  0  0  0
 40 41  2  0  0  0  0
 41 42  1  0  0  0  0
 42 44  1  0  0  0  0
 43 41  1  0  0  0  0
 44 46  1  0  0  0  0
 44 47  1  0  0  0  0
 45 44  1  0  0  0  0
M  END
>  <MODEL>
21

>  <REMARK>
 VINA RESULT:    -7.056      3.759      9.448
 INTER + INTRA:         -10.080
 INTER:                  -9.705
 INTRA:                  -0.375
 UNBOUND:                -0.548
  Name = 
  7 active torsions:
  status: ('A' for Active; 'I' for Inactive)
    1  A    between atoms: C_1  and  C_2
    2  A    between atoms: C_2  and  C_3
    3  A    between atoms: C_2  and  S_22
    4  A    between atoms: C_7  and  N_9
    5  A    between atoms: C_10  and  C_11
    6  A    between atoms: S_22  and  C_23
    7  A    between atoms: N_27  and  C_28
                            x       y       z     vdW  Elec       q    Type
                         _______ _______ _______ _____ _____    ______ ____

>  <TORSDO>
F 7

$$$$
=
 OpenBabel07192307433D

 47 50  0  0  1  0  0  0  0  0999 V2000
   -0.6240   11.1990   21.2880 C   0  0  0  0  0  0  0  0  0  0  0  0
   -0.8280   10.7660   22.6060 C   0  0  0  0  0  0  0  0  0  0  0  0
   -0.2270    9.5970   23.0700 C   0  0  0  0  0  0  0  0  0  0  0  0
    0.5930    8.8430   22.2280 C   0  0  0  0  0  0  0  0  0  0  0  0
    0.8210    9.2540   20.9150 C   0  0  0  0  0  0  0  0  0  0  0  0
    0.2110   10.4300   20.4550 C   0  0  0  0  0  0  0  0  0  0  0  0
   -1.4590   11.3380   23.2850 H   0  0  0  0  0  0  0  0  0  0  0  0
   -0.3930    9.2690   24.0930 H   0  0  0  0  0  0  0  0  0  0  0  0
    1.0420    7.9400   22.6270 H   0  0  0  0  0  0  0  0  0  0  0  0
    0.3960   10.7600   19.4360 H   0  0  0  0  0  0  0  0  0  0  0  0
    1.6340    8.5550   20.0080 N   0  0  0  0  0  0  0  0  0  0  0  0
    1.9230    7.2040   19.9740 C   0  0  0  0  0  0  0  0  0  0  0  0
    1.5230    6.3380   20.7430 O   0  0  0  0  0  0  0  0  0  0  0  0
    2.0830    9.0890   19.2660 H   0  0  0  0  0  0  0  0  0  0  0  0
    2.8350    6.8370   18.8390 C   0  0  0  0  0  0  0  0  0  0  0  0
    3.2140    5.5120   18.6530 C   0  0  0  0  0  0  0  0  0  0  0  0
    4.0630    5.2030   17.5870 C   0  0  0  0  0  0  0  0  0  0  0  0
    4.4860    3.8880   17.3370 C   0  0  0  0  0  0  0  0  0  0  0  0
    5.3350    3.6050   16.2640 C   0  0  0  0  0  0  0  0  0  0  0  0
    5.7700    4.6300   15.4290 C   0  0  0  0  0  0  0  0  0  0  0  0
    5.3590    5.9440   15.6620 C   0  0  0  0  0  0  0  0  0  0  0  0
    4.5050    6.2400   16.7400 C   0  0  0  0  0  0  0  0  0  0  0  0
    4.0630    7.5360   17.0190 C   0  0  0  0  0  0  0  0  0  0  0  0
    3.2430    7.8660   18.0440 N   0  0  0  0  0  0  0  0  0  0  0  0
    2.8500    4.7430   19.3280 H   0  0  0  0  0  0  0  0  0  0  0  0
    4.1590    3.0710   17.9780 H   0  0  0  0  0  0  0  0  0  0  0  0
    5.6560    2.5820   16.0820 H   0  0  0  0  0  0  0  0  0  0  0  0
    6.4310    4.4070   14.5940 H   0  0  0  0  0  0  0  0  0  0  0  0
    5.7090    6.7320   14.9990 H   0  0  0  0  0  0  0  0  0  0  0  0
    4.3700    8.3760   16.4000 H   0  0  0  0  0  0  0  0  0  0  0  0
   -1.2870   12.4810   20.8080 C   0  0  2  0  0  0  0  0  0  0  0  0
   -0.7300   13.3260   21.2300 H   0  0  0  0  0  0  0  0  0  0  0  0
   -2.7400   12.5960   21.2800 C   0  0  0  0  0  0  0  0  0  0  0  0
   -3.2900   13.3530   20.7120 H   0  0  0  0  0  0  0  0  0  0  0  0
   -3.2880   11.6510   21.1900 H   0  0  0  0  0  0  0  0  0  0  0  0
   -2.7770   12.8930   22.3340 H   0  0  0  0  0  0  0  0  0  0  0  0
   -1.1920   12.5850   18.9770 S   0  0  0  0  0  0  0  0  0  0  0  0
   -2.5610   11.6460   18.5050 C   0  0  0  0  0  0  0  0  0  0  0  0
   -3.8270   11.9310   18.7040 N   0  0  0  0  0  0  0  0  0  0  0  0
   -4.5770   10.9090   18.1670 N   0  0  0  0  0  0  0  0  0  0  0  0
   -3.7430   10.0340   17.6520 C   0  0  0  0  0  0  0  0  0  0  0  0
   -2.4610   10.4570   17.8420 N   0  0  0  0  0  0  0  0  0  0  0  0
   -4.0140    9.1140   17.1520 H   0  0  0  0  0  0  0  0  0  0  0  0
   -1.2730    9.7710   17.4130 C   0  0  0  0  0  0  0  0  0  0  0  0
   -0.5700   10.5030   17.0090 H   0  0  0  0  0  0  0  0  0  0  0  0
   -1.5300    9.0470   16.6350 H   0  0  0  0  0  0  0  0  0  0  0  0
   -0.8420    9.2460   18.2690 H   0  0  0  0  0  0  0  0  0  0  0  0
  1  2  1  0  0  0  0
  2  3  2  0  0  0  0
  2  7  1  0  0  0  0
  3  8  1  0  0  0  0
  4  9  1  0  0  0  0
  4  3  1  0  0  0  0
  5  4  2  0  0  0  0
  6  5  1  0  0  0  0
  6  1  2  0  0  0  0
 10  6  1  0  0  0  0
 11  5  1  0  0  0  0
 12 11  1  0  0  0  0
 12 13  2  0  0  0  0
 14 11  1  0  0  0  0
 15 12  1  0  0  0  0
 16 15  1  0  0  0  0
 16 25  1  0  0  0  0
 17 16  2  0  0  0  0
 18 17  1  0  0  0  0
 18 26  1  0  0  0  0
 19 18  2  0  0  0  0
 20 21  2  0  0  0  0
 20 19  1  0  0  0  0
 21 22  1  0  0  0  0
 22 23  2  0  0  0  0
 22 17  1  0  0  0  0
 23 24  1  0  0  0  0
 24 15  2  0  0  0  0
 27 19  1  0  0  0  0
 28 20  1  0  0  0  0
 29 21  1  0  0  0  0
 30 23  1  0  0  0  0
 31 32  1  1  0  0  0
 31 33  1  0  0  0  0
 31  1  1  0  0  0  0
 33 36  1  0  0  0  0
 34 33  1  0  0  0  0
 35 33  1  0  0  0  0
 37 31  1  0  0  0  0
 38 39  2  0  0  0  0
 38 37  1  0  0  0  0
 40 39  1  0  0  0  0
 41 42  1  0  0  0  0
 41 40  2  0  0  0  0
 42 38  1  0  0  0  0
 43 41  1  0  0  0  0
 44 42  1  0  0  0  0
 44 47  1  0  0  0  0
 45 44  1  0  0  0  0
 46 44  1  0  0  0  0
M  END
>  <MODEL>
22

>  <REMARK>
 VINA RESULT:    -6.973      1.432      2.215
 INTER + INTRA:          -9.967
 INTER:                  -9.985
 INTRA:                   0.018
 UNBOUND:                -0.548
  Name = 
  7 active torsions:
  status: ('A' for Active; 'I' for Inactive)
    1  A    between atoms: C_1  and  C_2
    2  A    between atoms: C_2  and  C_3
    3  A    between atoms: C_2  and  S_22
    4  A    between atoms: C_7  and  N_9
    5  A    between atoms: C_10  and  C_11
    6  A    between atoms: S_22  and  C_23
    7  A    between atoms: N_27  and  C_28
                            x       y       z     vdW  Elec       q    Type
                         _______ _______ _______ _____ _____    ______ ____

>  <TORSDO>
F 7

$$$$
=
 OpenBabel07192307433D

 47 50  0  0  1  0  0  0  0  0999 V2000
    4.3800    5.6580   18.5890 C   0  0  0  0  0  0  0  0  0  0  0  0
    4.5830    5.9500   17.2320 C   0  0  0  0  0  0  0  0  0  0  0  0
    3.9130    7.0120   16.6260 C   0  0  0  0  0  0  0  0  0  0  0  0
    3.0340    7.8050   17.3670 C   0  0  0  0  0  0  0  0  0  0  0  0
    2.8200    7.5440   18.7190 C   0  0  0  0  0  0  0  0  0  0  0  0
    3.4960    6.4730   19.3210 C   0  0  0  0  0  0  0  0  0  0  0  0
    5.2660    5.3500   16.6330 H   0  0  0  0  0  0  0  0  0  0  0  0
    4.0750    7.2280   15.5740 H   0  0  0  0  0  0  0  0  0  0  0  0
    2.5320    8.6220   16.8590 H   0  0  0  0  0  0  0  0  0  0  0  0
    3.3410    6.2730   20.3780 H   0  0  0  0  0  0  0  0  0  0  0  0
    1.9570    8.2960   19.5330 N   0  0  0  0  0  0  0  0  0  0  0  0
    1.2670    7.8930   20.6600 C   0  0  0  0  0  0  0  0  0  0  0  0
    1.2700    6.7820   21.1770 O   0  0  0  0  0  0  0  0  0  0  0  0
    1.8010    9.2710   19.2840 H   0  0  0  0  0  0  0  0  0  0  0  0
    0.4450    8.9970   21.2610 C   0  0  0  0  0  0  0  0  0  0  0  0
   -0.1110    9.9740   20.4430 C   0  0  0  0  0  0  0  0  0  0  0  0
   -0.8710   10.9880   21.0340 C   0  0  0  0  0  0  0  0  0  0  0  0
   -1.4630   12.0070   20.2700 C   0  0  0  0  0  0  0  0  0  0  0  0
   -2.2190   13.0080   20.8850 C   0  0  0  0  0  0  0  0  0  0  0  0
   -2.3920   13.0040   22.2660 C   0  0  0  0  0  0  0  0  0  0  0  0
   -1.8110   11.9980   23.0400 C   0  0  0  0  0  0  0  0  0  0  0  0
   -1.0480   10.9850   22.4320 C   0  0  0  0  0  0  0  0  0  0  0  0
   -0.4440    9.9550   23.1590 C   0  0  0  0  0  0  0  0  0  0  0  0
    0.2980    8.9620   22.6160 N   0  0  0  0  0  0  0  0  0  0  0  0
    0.0490    9.9390   19.3690 H   0  0  0  0  0  0  0  0  0  0  0  0
   -1.3400   12.0290   19.1890 H   0  0  0  0  0  0  0  0  0  0  0  0
   -2.6710   13.7920   20.2820 H   0  0  0  0  0  0  0  0  0  0  0  0
   -2.9810   13.7850   22.7420 H   0  0  0  0  0  0  0  0  0  0  0  0
   -1.9570   12.0100   24.1180 H   0  0  0  0  0  0  0  0  0  0  0  0
   -0.5460    9.9000   24.2410 H   0  0  0  0  0  0  0  0  0  0  0  0
    5.1280    4.4970   19.2270 C   0  0  2  0  0  0  0  0  0  0  0  0
    5.0970    4.6330   20.3140 H   0  0  0  0  0  0  0  0  0  0  0  0
    6.5990    4.4510   18.8030 C   0  0  0  0  0  0  0  0  0  0  0  0
    7.2680    4.6470   19.6470 H   0  0  0  0  0  0  0  0  0  0  0  0
    6.8840    3.4840   18.3720 H   0  0  0  0  0  0  0  0  0  0  0  0
    6.8030    5.2170   18.0450 H   0  0  0  0  0  0  0  0  0  0  0  0
    4.2880    2.9150   18.8200 S   0  0  0  0  0  0  0  0  0  0  0  0
    2.9430    2.9500   19.9010 C   0  0  0  0  0  0  0  0  0  0  0  0
    2.9400    2.6380   21.1770 N   0  0  0  0  0  0  0  0  0  0  0  0
    1.6570    2.8080   21.6480 N   0  0  0  0  0  0  0  0  0  0  0  0
    0.9190    3.2210   20.6440 C   0  0  0  0  0  0  0  0  0  0  0  0
    1.6860    3.3260   19.5230 N   0  0  0  0  0  0  0  0  0  0  0  0
   -0.1380    3.4490   20.6820 H   0  0  0  0  0  0  0  0  0  0  0  0
    1.2360    3.7530   18.2270 C   0  0  0  0  0  0  0  0  0  0  0  0
    0.6720    4.6830   18.3370 H   0  0  0  0  0  0  0  0  0  0  0  0
    0.5880    2.9860   17.7940 H   0  0  0  0  0  0  0  0  0  0  0  0
    2.1060    3.8990   17.5820 H   0  0  0  0  0  0  0  0  0  0  0  0
  1 31  1  0  0  0  0
  1  6  1  0  0  0  0
  2  1  2  0  0  0  0
  3  2  1  0  0  0  0
  3  4  2  0  0  0  0
  4  5  1  0  0  0  0
  5  6  2  0  0  0  0
  5 11  1  0  0  0  0
  6 10  1  0  0  0  0
  7  2  1  0  0  0  0
  8  3  1  0  0  0  0
  9  4  1  0  0  0  0
 11 12  1  0  0  0  0
 12 13  2  0  0  0  0
 12 15  1  0  0  0  0
 14 11  1  0  0  0  0
 15 24  1  0  0  0  0
 16 17  1  0  0  0  0
 16 15  2  0  0  0  0
 17 22  1  0  0  0  0
 18 19  1  0  0  0  0
 18 17  2  0  0  0  0
 19 20  2  0  0  0  0
 20 28  1  0  0  0  0
 20 21  1  0  0  0  0
 21 29  1  0  0  0  0
 22 21  2  0  0  0  0
 22 23  1  0  0  0  0
 23 30  1  0  0  0  0
 24 23  2  0  0  0  0
 25 16  1  0  0  0  0
 26 18  1  0  0  0  0
 27 19  1  0  0  0  0
 31 32  1  1  0  0  0
 33 31  1  0  0  0  0
 33 34  1  0  0  0  0
 35 33  1  0  0  0  0
 36 33  1  0  0  0  0
 37 31  1  0  0  0  0
 37 38  1  0  0  0  0
 38 39  2  0  0  0  0
 39 40  1  0  0  0  0
 41 43  1  0  0  0  0
 41 40  2  0  0  0  0
 42 38  1  0  0  0  0
 42 41  1  0  0  0  0
 44 45  1  0  0  0  0
 44 42  1  0  0  0  0
 46 44  1  0  0  0  0
 47 44  1  0  0  0  0
M  END
>  <MODEL>
23

>  <REMARK>
 VINA RESULT:    -6.914      3.585      8.793
 INTER + INTRA:          -9.888
 INTER:                  -9.263
 INTRA:                  -0.624
 UNBOUND:                -0.548
  Name = 
  7 active torsions:
  status: ('A' for Active; 'I' for Inactive)
    1  A    between atoms: C_1  and  C_2
    2  A    between atoms: C_2  and  C_3
    3  A    between atoms: C_2  and  S_22
    4  A    between atoms: C_7  and  N_9
    5  A    between atoms: C_10  and  C_11
    6  A    between atoms: S_22  and  C_23
    7  A    between atoms: N_27  and  C_28
                            x       y       z     vdW  Elec       q    Type
                         _______ _______ _______ _____ _____    ______ ____

>  <TORSDO>
F 7

$$$$
=
 OpenBabel07192307433D

 47 50  0  0  1  0  0  0  0  0999 V2000
   -0.2040   11.7100   20.4710 C   0  0  0  0  0  0  0  0  0  0  0  0
   -1.2740   11.9510   19.5970 C   0  0  0  0  0  0  0  0  0  0  0  0
   -1.4440   11.1730   18.4520 C   0  0  0  0  0  0  0  0  0  0  0  0
   -0.5510   10.1380   18.1640 C   0  0  0  0  0  0  0  0  0  0  0  0
    0.5160    9.8710   19.0190 C   0  0  0  0  0  0  0  0  0  0  0  0
    0.6810   10.6590   20.1680 C   0  0  0  0  0  0  0  0  0  0  0  0
   -1.9870   12.7480   19.8010 H   0  0  0  0  0  0  0  0  0  0  0  0
   -2.2750   11.3690   17.7800 H   0  0  0  0  0  0  0  0  0  0  0  0
   -0.7190    9.5560   17.2630 H   0  0  0  0  0  0  0  0  0  0  0  0
    1.5050   10.4460   20.8440 H   0  0  0  0  0  0  0  0  0  0  0  0
    1.4530    8.8470   18.8030 N   0  0  0  0  0  0  0  0  0  0  0  0
    1.8320    7.8320   19.6600 C   0  0  0  0  0  0  0  0  0  0  0  0
    1.4200    7.6230   20.7950 O   0  0  0  0  0  0  0  0  0  0  0  0
    1.9320    8.8260   17.9040 H   0  0  0  0  0  0  0  0  0  0  0  0
    2.8660    6.9240   19.0580 C   0  0  0  0  0  0  0  0  0  0  0  0
    3.4090    7.2180   17.8140 C   0  0  0  0  0  0  0  0  0  0  0  0
    4.3710    6.3530   17.2820 C   0  0  0  0  0  0  0  0  0  0  0  0
    4.9640    6.5870   16.0310 C   0  0  0  0  0  0  0  0  0  0  0  0
    5.9220    5.7080   15.5230 C   0  0  0  0  0  0  0  0  0  0  0  0
    6.3000    4.5860   16.2560 C   0  0  0  0  0  0  0  0  0  0  0  0
    5.7210    4.3380   17.5020 C   0  0  0  0  0  0  0  0  0  0  0  0
    4.7540    5.2170   18.0230 C   0  0  0  0  0  0  0  0  0  0  0  0
    4.1430    5.0170   19.2640 C   0  0  0  0  0  0  0  0  0  0  0  0
    3.2090    5.8350   19.8030 N   0  0  0  0  0  0  0  0  0  0  0  0
    3.0870    8.1050   17.2750 H   0  0  0  0  0  0  0  0  0  0  0  0
    4.6830    7.4570   15.4410 H   0  0  0  0  0  0  0  0  0  0  0  0
    6.3740    5.9000   14.5520 H   0  0  0  0  0  0  0  0  0  0  0  0
    7.0470    3.9030   15.8570 H   0  0  0  0  0  0  0  0  0  0  0  0
    6.0280    3.4570   18.0610 H   0  0  0  0  0  0  0  0  0  0  0  0
    4.3990    4.1580   19.8810 H   0  0  0  0  0  0  0  0  0  0  0  0
   -0.0450   12.5700   21.7170 C   0  0  2  0  0  0  0  0  0  0  0  0
    0.8850   12.2700   22.2150 H   0  0  0  0  0  0  0  0  0  0  0  0
   -1.1940   12.3710   22.7100 C   0  0  0  0  0  0  0  0  0  0  0  0
   -1.3610   13.2670   23.3170 H   0  0  0  0  0  0  0  0  0  0  0  0
   -2.1410   12.1250   22.2160 H   0  0  0  0  0  0  0  0  0  0  0  0
   -0.9650   11.5510   23.4010 H   0  0  0  0  0  0  0  0  0  0  0  0
    0.1000   14.3380   21.2400 S   0  0  0  0  0  0  0  0  0  0  0  0
    1.7980   14.4830   20.9630 C   0  0  0  0  0  0  0  0  0  0  0  0
    2.7260   14.7700   21.8470 N   0  0  0  0  0  0  0  0  0  0  0  0
    3.9380   14.7840   21.1940 N   0  0  0  0  0  0  0  0  0  0  0  0
    3.7100   14.5000   19.9310 C   0  0  0  0  0  0  0  0  0  0  0  0
    2.3760   14.3030   19.7390 N   0  0  0  0  0  0  0  0  0  0  0  0
    4.4550   14.4300   19.1510 H   0  0  0  0  0  0  0  0  0  0  0  0
    1.7410   13.9680   18.4940 C   0  0  0  0  0  0  0  0  0  0  0  0
    2.4900   13.5500   17.8170 H   0  0  0  0  0  0  0  0  0  0  0  0
    1.3130   14.8710   18.0480 H   0  0  0  0  0  0  0  0  0  0  0  0
    0.9440   13.2460   18.6880 H   0  0  0  0  0  0  0  0  0  0  0  0
  1 31  1  0  0  0  0
  2  7  1  0  0  0  0
  2  1  2  0  0  0  0
  3  2  1  0  0  0  0
  4  3  2  0  0  0  0
  4  5  1  0  0  0  0
  5  6  2  0  0  0  0
  6  1  1  0  0  0  0
  6 10  1  0  0  0  0
  8  3  1  0  0  0  0
  9  4  1  0  0  0  0
 11  5  1  0  0  0  0
 11 12  1  0  0  0  0
 12 13  2  0  0  0  0
 14 11  1  0  0  0  0
 15 12  1  0  0  0  0
 15 24  1  0  0  0  0
 16 15  2  0  0  0  0
 17 16  1  0  0  0  0
 17 22  1  0  0  0  0
 18 17  2  0  0  0  0
 19 18  1  0  0  0  0
 19 20  2  0  0  0  0
 20 21  1  0  0  0  0
 21 22  2  0  0  0  0
 21 29  1  0  0  0  0
 22 23  1  0  0  0  0
 23 24  2  0  0  0  0
 23 30  1  0  0  0  0
 25 16  1  0  0  0  0
 26 18  1  0  0  0  0
 27 19  1  0  0  0  0
 28 20  1  0  0  0  0
 31 32  1  1  0  0  0
 31 33  1  0  0  0  0
 33 34  1  0  0  0  0
 33 36  1  0  0  0  0
 35 33  1  0  0  0  0
 37 31  1  0  0  0  0
 38 37  1  0  0  0  0
 38 39  2  0  0  0  0
 40 39  1  0  0  0  0
 41 40  2  0  0  0  0
 42 41  1  0  0  0  0
 42 38  1  0  0  0  0
 43 41  1  0  0  0  0
 44 47  1  0  0  0  0
 44 42  1  0  0  0  0
 45 44  1  0  0  0  0
 46 44  1  0  0  0  0
M  END
>  <MODEL>
24

>  <REMARK>
 VINA RESULT:    -6.914      2.927      4.312
 INTER + INTRA:          -9.887
 INTER:                  -9.110
 INTRA:                  -0.777
 UNBOUND:                -0.548
  Name = 
  7 active torsions:
  status: ('A' for Active; 'I' for Inactive)
    1  A    between atoms: C_1  and  C_2
    2  A    between atoms: C_2  and  C_3
    3  A    between atoms: C_2  and  S_22
    4  A    between atoms: C_7  and  N_9
    5  A    between atoms: C_10  and  C_11
    6  A    between atoms: S_22  and  C_23
    7  A    between atoms: N_27  and  C_28
                            x       y       z     vdW  Elec       q    Type
                         _______ _______ _______ _____ _____    ______ ____

>  <TORSDO>
F 7

$$$$
=
 OpenBabel07192307433D

 47 50  0  0  1  0  0  0  0  0999 V2000
    2.7970    5.0800   18.7700 C   0  0  0  0  0  0  0  0  0  0  0  0
    2.4050    4.2570   19.8360 C   0  0  0  0  0  0  0  0  0  0  0  0
    1.7900    4.8000   20.9630 C   0  0  0  0  0  0  0  0  0  0  0  0
    1.5500    6.1740   21.0430 C   0  0  0  0  0  0  0  0  0  0  0  0
    1.9210    7.0140   19.9960 C   0  0  0  0  0  0  0  0  0  0  0  0
    2.5400    6.4620   18.8650 C   0  0  0  0  0  0  0  0  0  0  0  0
    2.5770    3.1820   19.7970 H   0  0  0  0  0  0  0  0  0  0  0  0
    1.4930    4.1540   21.7850 H   0  0  0  0  0  0  0  0  0  0  0  0
    1.0690    6.5560   21.9380 H   0  0  0  0  0  0  0  0  0  0  0  0
    2.8190    7.1120   18.0400 H   0  0  0  0  0  0  0  0  0  0  0  0
    1.7100    8.4030   19.9970 N   0  0  0  0  0  0  0  0  0  0  0  0
    0.6800    9.1170   20.5780 C   0  0  0  0  0  0  0  0  0  0  0  0
   -0.2690    8.6720   21.2130 O   0  0  0  0  0  0  0  0  0  0  0  0
    2.3920    8.9860   19.5140 H   0  0  0  0  0  0  0  0  0  0  0  0
    0.8100   10.5980   20.3630 C   0  0  0  0  0  0  0  0  0  0  0  0
    1.6020   11.0830   19.3290 C   0  0  0  0  0  0  0  0  0  0  0  0
    1.7010   12.4670   19.1560 C   0  0  0  0  0  0  0  0  0  0  0  0
    2.4820   13.0290   18.1330 C   0  0  0  0  0  0  0  0  0  0  0  0
    2.5640   14.4140   17.9800 C   0  0  0  0  0  0  0  0  0  0  0  0
    1.8690   15.2550   18.8450 C   0  0  0  0  0  0  0  0  0  0  0  0
    1.0870   14.7130   19.8680 C   0  0  0  0  0  0  0  0  0  0  0  0
    0.9980   13.3200   20.0310 C   0  0  0  0  0  0  0  0  0  0  0  0
    0.2310   12.7250   21.0370 C   0  0  0  0  0  0  0  0  0  0  0  0
    0.1170   11.3900   21.2300 N   0  0  0  0  0  0  0  0  0  0  0  0
    2.1270   10.3920   18.6770 H   0  0  0  0  0  0  0  0  0  0  0  0
    3.0350   12.3900   17.4460 H   0  0  0  0  0  0  0  0  0  0  0  0
    3.1730   14.8370   17.1840 H   0  0  0  0  0  0  0  0  0  0  0  0
    1.9350   16.3340   18.7240 H   0  0  0  0  0  0  0  0  0  0  0  0
    0.5510   15.3850   20.5340 H   0  0  0  0  0  0  0  0  0  0  0  0
   -0.3340   13.3310   21.7410 H   0  0  0  0  0  0  0  0  0  0  0  0
    3.4600    4.4620   17.5480 C   0  0  2  0  0  0  0  0  0  0  0  0
    3.4520    5.2100   16.7460 H   0  0  0  0  0  0  0  0  0  0  0  0
    2.7110    3.2250   17.0440 C   0  0  0  0  0  0  0  0  0  0  0  0
    2.8150    2.3810   17.7340 H   0  0  0  0  0  0  0  0  0  0  0  0
    1.6390    3.4090   16.9050 H   0  0  0  0  0  0  0  0  0  0  0  0
    3.1130    2.9030   16.0760 H   0  0  0  0  0  0  0  0  0  0  0  0
    5.2080    4.0480   17.9320 S   0  0  0  0  0  0  0  0  0  0  0  0
    5.9610    4.2670   16.3940 C   0  0  0  0  0  0  0  0  0  0  0  0
    5.8390    3.5040   15.3330 N   0  0  0  0  0  0  0  0  0  0  0  0
    6.6120    4.0480   14.3320 N   0  0  0  0  0  0  0  0  0  0  0  0
    7.1790    5.1310   14.8140 C   0  0  0  0  0  0  0  0  0  0  0  0
    6.7970    5.3090   16.1110 N   0  0  0  0  0  0  0  0  0  0  0  0
    7.8480    5.7910   14.2800 H   0  0  0  0  0  0  0  0  0  0  0  0
    7.2040    6.3850   16.9710 C   0  0  0  0  0  0  0  0  0  0  0  0
    6.9990    6.1060   18.0080 H   0  0  0  0  0  0  0  0  0  0  0  0
    6.6400    7.2880   16.7200 H   0  0  0  0  0  0  0  0  0  0  0  0
    8.2710    6.5710   16.8220 H   0  0  0  0  0  0  0  0  0  0  0  0
  1  6  2  0  0  0  0
  1  2  1  0  0  0  0
  2  3  2  0  0  0  0
  3  4  1  0  0  0  0
  3  8  1  0  0  0  0
  4  9  1  0  0  0  0
  5 11  1  0  0  0  0
  5  4  2  0  0  0  0
  6  5  1  0  0  0  0
  7  2  1  0  0  0  0
 10  6  1  0  0  0  0
 11 12  1  0  0  0  0
 12 13  2  0  0  0  0
 14 11  1  0  0  0  0
 15 12  1  0  0  0  0
 15 24  1  0  0  0  0
 16 15  2  0  0  0  0
 17 16  1  0  0  0  0
 17 22  1  0  0  0  0
 18 17  2  0  0  0  0
 19 18  1  0  0  0  0
 19 20  2  0  0  0  0
 20 21  1  0  0  0  0
 21 22  2  0  0  0  0
 21 29  1  0  0  0  0
 22 23  1  0  0  0  0
 23 24  2  0  0  0  0
 23 30  1  0  0  0  0
 25 16  1  0  0  0  0
 26 18  1  0  0  0  0
 27 19  1  0  0  0  0
 28 20  1  0  0  0  0
 31 32  1  6  0  0  0
 31 37  1  0  0  0  0
 31  1  1  0  0  0  0
 33 31  1  0  0  0  0
 33 34  1  0  0  0  0
 35 33  1  0  0  0  0
 36 33  1  0  0  0  0
 38 37  1  0  0  0  0
 39 38  2  0  0  0  0
 40 41  2  0  0  0  0
 40 39  1  0  0  0  0
 41 42  1  0  0  0  0
 42 38  1  0  0  0  0
 42 44  1  0  0  0  0
 43 41  1  0  0  0  0
 44 45  1  0  0  0  0
 46 44  1  0  0  0  0
 47 44  1  0  0  0  0
M  END
>  <MODEL>
25

>  <REMARK>
 VINA RESULT:    -6.863      3.785      8.815
 INTER + INTRA:          -9.818
 INTER:                  -9.390
 INTRA:                  -0.428
 UNBOUND:                -0.548
  Name = 
  7 active torsions:
  status: ('A' for Active; 'I' for Inactive)
    1  A    between atoms: C_1  and  C_2
    2  A    between atoms: C_2  and  C_3
    3  A    between atoms: C_2  and  S_22
    4  A    between atoms: C_7  and  N_9
    5  A    between atoms: C_10  and  C_11
    6  A    between atoms: S_22  and  C_23
    7  A    between atoms: N_27  and  C_28
                            x       y       z     vdW  Elec       q    Type
                         _______ _______ _______ _____ _____    ______ ____

>  <TORSDO>
F 7

$$$$
=
 OpenBabel07192307433D

 47 50  0  0  1  0  0  0  0  0999 V2000
    0.0410   12.1410   21.0590 C   0  0  0  0  0  0  0  0  0  0  0  0
    0.3620   13.0180   20.0130 C   0  0  0  0  0  0  0  0  0  0  0  0
    0.9970   12.5500   18.8630 C   0  0  0  0  0  0  0  0  0  0  0  0
    1.3160   11.1960   18.7350 C   0  0  0  0  0  0  0  0  0  0  0  0
    1.0020   10.3000   19.7550 C   0  0  0  0  0  0  0  0  0  0  0  0
    0.3650   10.7790   20.9100 C   0  0  0  0  0  0  0  0  0  0  0  0
    0.1200   14.0770   20.0850 H   0  0  0  0  0  0  0  0  0  0  0  0
    1.2430   13.2380   18.0590 H   0  0  0  0  0  0  0  0  0  0  0  0
    1.8100   10.8720   17.8250 H   0  0  0  0  0  0  0  0  0  0  0  0
    0.1070   10.0810   21.7020 H   0  0  0  0  0  0  0  0  0  0  0  0
    1.2850    8.9250   19.7020 N   0  0  0  0  0  0  0  0  0  0  0  0
    2.0600    8.2410   18.7850 C   0  0  0  0  0  0  0  0  0  0  0  0
    2.6590    8.7050   17.8220 O   0  0  0  0  0  0  0  0  0  0  0  0
    0.8800    8.3300   20.4220 H   0  0  0  0  0  0  0  0  0  0  0  0
    2.1270    6.7680   19.0700 C   0  0  0  0  0  0  0  0  0  0  0  0
    2.3890    5.8720   18.0410 C   0  0  0  0  0  0  0  0  0  0  0  0
    2.4450    4.5070   18.3400 C   0  0  0  0  0  0  0  0  0  0  0  0
    2.7060    3.5450   17.3510 C   0  0  0  0  0  0  0  0  0  0  0  0
    2.7580    2.1880   17.6760 C   0  0  0  0  0  0  0  0  0  0  0  0
    2.5500    1.7750   18.9890 C   0  0  0  0  0  0  0  0  0  0  0  0
    2.2900    2.7190   19.9850 C   0  0  0  0  0  0  0  0  0  0  0  0
    2.2350    4.0880   19.6690 C   0  0  0  0  0  0  0  0  0  0  0  0
    1.9790    5.0740   20.6260 C   0  0  0  0  0  0  0  0  0  0  0  0
    1.9170    6.4010   20.3660 N   0  0  0  0  0  0  0  0  0  0  0  0
    2.5450    6.2370   17.0300 H   0  0  0  0  0  0  0  0  0  0  0  0
    2.8710    3.8450   16.3180 H   0  0  0  0  0  0  0  0  0  0  0  0
    2.9600    1.4520   16.9010 H   0  0  0  0  0  0  0  0  0  0  0  0
    2.5910    0.7170   19.2390 H   0  0  0  0  0  0  0  0  0  0  0  0
    2.1310    2.3780   21.0050 H   0  0  0  0  0  0  0  0  0  0  0  0
    1.8100    4.8110   21.6680 H   0  0  0  0  0  0  0  0  0  0  0  0
   -0.6560   12.6770   22.3000 C   0  0  2  0  0  0  0  0  0  0  0  0
    0.1180   13.0060   23.0050 H   0  0  0  0  0  0  0  0  0  0  0  0
   -1.5010   11.6070   22.9990 C   0  0  0  0  0  0  0  0  0  0  0  0
   -1.2560   10.6020   22.6400 H   0  0  0  0  0  0  0  0  0  0  0  0
   -1.3720   11.6110   24.0870 H   0  0  0  0  0  0  0  0  0  0  0  0
   -2.5670   11.7700   22.7980 H   0  0  0  0  0  0  0  0  0  0  0  0
   -1.6880   14.1300   21.8580 S   0  0  0  0  0  0  0  0  0  0  0  0
   -3.1100   13.3700   21.2410 C   0  0  0  0  0  0  0  0  0  0  0  0
   -3.2610   12.7970   20.0700 N   0  0  0  0  0  0  0  0  0  0  0  0
   -4.5520   12.3240   19.9960 N   0  0  0  0  0  0  0  0  0  0  0  0
   -5.1470   12.6210   21.1290 C   0  0  0  0  0  0  0  0  0  0  0  0
   -4.2770   13.2800   21.9440 N   0  0  0  0  0  0  0  0  0  0  0  0
   -6.1690   12.3860   21.3910 H   0  0  0  0  0  0  0  0  0  0  0  0
   -4.5590   13.7620   23.2690 C   0  0  0  0  0  0  0  0  0  0  0  0
   -5.5760   14.1620   23.2890 H   0  0  0  0  0  0  0  0  0  0  0  0
   -3.8520   14.5550   23.5270 H   0  0  0  0  0  0  0  0  0  0  0  0
   -4.4510   12.9350   23.9750 H   0  0  0  0  0  0  0  0  0  0  0  0
  1 31  1  0  0  0  0
  2  7  1  0  0  0  0
  2  1  2  0  0  0  0
  3  2  1  0  0  0  0
  4  3  2  0  0  0  0
  4  5  1  0  0  0  0
  5  6  2  0  0  0  0
  6  1  1  0  0  0  0
  6 10  1  0  0  0  0
  8  3  1  0  0  0  0
  9  4  1  0  0  0  0
 11  5  1  0  0  0  0
 11 14  1  0  0  0  0
 12 15  1  0  0  0  0
 12 11  1  0  0  0  0
 13 12  2  0  0  0  0
 15 24  1  0  0  0  0
 16 17  1  0  0  0  0
 16 15  2  0  0  0  0
 17 22  1  0  0  0  0
 18 19  1  0  0  0  0
 18 17  2  0  0  0  0
 19 20  2  0  0  0  0
 20 28  1  0  0  0  0
 20 21  1  0  0  0  0
 21 29  1  0  0  0  0
 22 21  2  0  0  0  0
 22 23  1  0  0  0  0
 23 30  1  0  0  0  0
 24 23  2  0  0  0  0
 25 16  1  0  0  0  0
 26 18  1  0  0  0  0
 27 19  1  0  0  0  0
 31 33  1  0  0  0  0
 31 32  1  1  0  0  0
 33 35  1  0  0  0  0
 34 33  1  0  0  0  0
 36 33  1  0  0  0  0
 37 31  1  0  0  0  0
 38 37  1  0  0  0  0
 38 42  1  0  0  0  0
 39 38  2  0  0  0  0
 40 39  1  0  0  0  0
 40 41  2  0  0  0  0
 41 43  1  0  0  0  0
 41 42  1  0  0  0  0
 42 44  1  0  0  0  0
 44 45  1  0  0  0  0
 44 46  1  0  0  0  0
 44 47  1  0  0  0  0
M  END
>  <MODEL>
26

>  <REMARK>
 VINA RESULT:    -6.862      3.078      3.962
 INTER + INTRA:          -9.818
 INTER:                  -9.447
 INTRA:                  -0.371
 UNBOUND:                -0.548
  Name = 
  7 active torsions:
  status: ('A' for Active; 'I' for Inactive)
    1  A    between atoms: C_1  and  C_2
    2  A    between atoms: C_2  and  C_3
    3  A    between atoms: C_2  and  S_22
    4  A    between atoms: C_7  and  N_9
    5  A    between atoms: C_10  and  C_11
    6  A    between atoms: S_22  and  C_23
    7  A    between atoms: N_27  and  C_28
                            x       y       z     vdW  Elec       q    Type
                         _______ _______ _______ _____ _____    ______ ____

>  <TORSDO>
F 7

$$$$
=
 OpenBabel07192307433D

 47 50  0  0  1  0  0  0  0  0999 V2000
   -0.7070   11.8340   20.8370 C   0  0  0  0  0  0  0  0  0  0  0  0
   -1.3600   12.3590   19.7130 C   0  0  0  0  0  0  0  0  0  0  0  0
   -1.2690   11.7220   18.4770 C   0  0  0  0  0  0  0  0  0  0  0  0
   -0.5280   10.5450   18.3430 C   0  0  0  0  0  0  0  0  0  0  0  0
    0.1240    9.9960   19.4450 C   0  0  0  0  0  0  0  0  0  0  0  0
    0.0300   10.6440   20.6850 C   0  0  0  0  0  0  0  0  0  0  0  0
   -1.9480   13.2730   19.7910 H   0  0  0  0  0  0  0  0  0  0  0  0
   -1.7770   12.1380   17.6110 H   0  0  0  0  0  0  0  0  0  0  0  0
   -0.4820   10.0800   17.3640 H   0  0  0  0  0  0  0  0  0  0  0  0
    0.5270   10.2120   21.5500 H   0  0  0  0  0  0  0  0  0  0  0  0
    0.8840    8.8150   19.3940 N   0  0  0  0  0  0  0  0  0  0  0  0
    1.9780    8.5290   18.6010 C   0  0  0  0  0  0  0  0  0  0  0  0
    2.5070    9.2590   17.7710 O   0  0  0  0  0  0  0  0  0  0  0  0
    0.6160    8.0530   20.0140 H   0  0  0  0  0  0  0  0  0  0  0  0
    2.5230    7.1510   18.8430 C   0  0  0  0  0  0  0  0  0  0  0  0
    2.0050    6.3690   19.8690 C   0  0  0  0  0  0  0  0  0  0  0  0
    2.5340    5.0900   20.0670 C   0  0  0  0  0  0  0  0  0  0  0  0
    2.0590    4.2450   21.0830 C   0  0  0  0  0  0  0  0  0  0  0  0
    2.6040    2.9710   21.2600 C   0  0  0  0  0  0  0  0  0  0  0  0
    3.6280    2.5270   20.4270 C   0  0  0  0  0  0  0  0  0  0  0  0
    4.1110    3.3540   19.4120 C   0  0  0  0  0  0  0  0  0  0  0  0
    3.5700    4.6380   19.2250 C   0  0  0  0  0  0  0  0  0  0  0  0
    4.0160    5.5080   18.2250 C   0  0  0  0  0  0  0  0  0  0  0  0
    3.5250    6.7500   18.0100 N   0  0  0  0  0  0  0  0  0  0  0  0
    1.2060    6.7550   20.4950 H   0  0  0  0  0  0  0  0  0  0  0  0
    1.2610    4.5720   21.7460 H   0  0  0  0  0  0  0  0  0  0  0  0
    2.2280    2.3260   22.0510 H   0  0  0  0  0  0  0  0  0  0  0  0
    4.0500    1.5340   20.5680 H   0  0  0  0  0  0  0  0  0  0  0  0
    4.9100    2.9910   18.7710 H   0  0  0  0  0  0  0  0  0  0  0  0
    4.8130    5.2140   17.5440 H   0  0  0  0  0  0  0  0  0  0  0  0
   -0.8270   12.5470   22.1770 C   0  0  2  0  0  0  0  0  0  0  0  0
    0.1770   12.6170   22.6120 H   0  0  0  0  0  0  0  0  0  0  0  0
   -1.7130   11.7810   23.1640 C   0  0  0  0  0  0  0  0  0  0  0  0
   -1.5700   12.1340   24.1910 H   0  0  0  0  0  0  0  0  0  0  0  0
   -2.7800   11.8690   22.9290 H   0  0  0  0  0  0  0  0  0  0  0  0
   -1.4650   10.7130   23.1520 H   0  0  0  0  0  0  0  0  0  0  0  0
   -1.4640   14.2500   21.9210 S   0  0  0  0  0  0  0  0  0  0  0  0
   -1.9580   14.6780   23.5190 C   0  0  0  0  0  0  0  0  0  0  0  0
   -1.1860   15.0030   24.5300 N   0  0  0  0  0  0  0  0  0  0  0  0
   -1.9980   15.2670   25.6110 N   0  0  0  0  0  0  0  0  0  0  0  0
   -3.2410   15.0980   25.2220 C   0  0  0  0  0  0  0  0  0  0  0  0
   -3.2650   14.7260   23.9110 N   0  0  0  0  0  0  0  0  0  0  0  0
   -4.1220   15.2290   25.8350 H   0  0  0  0  0  0  0  0  0  0  0  0
   -4.4410   14.4560   23.1310 C   0  0  0  0  0  0  0  0  0  0  0  0
   -4.2820   13.5400   22.5570 H   0  0  0  0  0  0  0  0  0  0  0  0
   -4.6230   15.2870   22.4440 H   0  0  0  0  0  0  0  0  0  0  0  0
   -5.2950   14.3490   23.8060 H   0  0  0  0  0  0  0  0  0  0  0  0
  1 31  1  0  0  0  0
  2  7  1  0  0  0  0
  2  1  2  0  0  0  0
  3  2  1  0  0  0  0
  4  3  2  0  0  0  0
  4  5  1  0  0  0  0
  5  6  2  0  0  0  0
  6  1  1  0  0  0  0
  6 10  1  0  0  0  0
  8  3  1  0  0  0  0
  9  4  1  0  0  0  0
 11  5  1  0  0  0  0
 11 14  1  0  0  0  0
 12 15  1  0  0  0  0
 12 11  1  0  0  0  0
 13 12  2  0  0  0  0
 15 16  1  0  0  0  0
 16 17  2  0  0  0  0
 16 25  1  0  0  0  0
 17 18  1  0  0  0  0
 18 19  2  0  0  0  0
 18 26  1  0  0  0  0
 19 27  1  0  0  0  0
 20 28  1  0  0  0  0
 20 19  1  0  0  0  0
 21 20  2  0  0  0  0
 22 21  1  0  0  0  0
 22 17  1  0  0  0  0
 23 22  2  0  0  0  0
 24 23  1  0  0  0  0
 24 15  2  0  0  0  0
 29 21  1  0  0  0  0
 30 23  1  0  0  0  0
 31 32  1  1  0  0  0
 31 33  1  0  0  0  0
 33 34  1  0  0  0  0
 35 33  1  0  0  0  0
 36 33  1  0  0  0  0
 37 31  1  0  0  0  0
 37 38  1  0  0  0  0
 38 42  1  0  0  0  0
 38 39  2  0  0  0  0
 39 40  1  0  0  0  0
 41 40  2  0  0  0  0
 41 43  1  0  0  0  0
 42 41  1  0  0  0  0
 44 47  1  0  0  0  0
 44 42  1  0  0  0  0
 45 44  1  0  0  0  0
 46 44  1  0  0  0  0
M  END
>  <MODEL>
27

>  <REMARK>
 VINA RESULT:    -6.825      3.968      5.334
 INTER + INTRA:          -9.767
 INTER:                  -9.169
 INTRA:                  -0.598
 UNBOUND:                -0.548
  Name = 
  7 active torsions:
  status: ('A' for Active; 'I' for Inactive)
    1  A    between atoms: C_1  and  C_2
    2  A    between atoms: C_2  and  C_3
    3  A    between atoms: C_2  and  S_22
    4  A    between atoms: C_7  and  N_9
    5  A    between atoms: C_10  and  C_11
    6  A    between atoms: S_22  and  C_23
    7  A    between atoms: N_27  and  C_28
                            x       y       z     vdW  Elec       q    Type
                         _______ _______ _______ _____ _____    ______ ____

>  <TORSDO>
F 7

$$$$
=
 OpenBabel07192307433D

 47 50  0  0  1  0  0  0  0  0999 V2000
   -0.9910   11.2190   20.4600 C   0  0  0  0  0  0  0  0  0  0  0  0
   -0.9250   11.4070   21.8480 C   0  0  0  0  0  0  0  0  0  0  0  0
   -0.1730   10.5480   22.6460 C   0  0  0  0  0  0  0  0  0  0  0  0
    0.5320    9.4870   22.0720 C   0  0  0  0  0  0  0  0  0  0  0  0
    0.4920    9.2810   20.6940 C   0  0  0  0  0  0  0  0  0  0  0  0
   -0.2680   10.1490   19.8970 C   0  0  0  0  0  0  0  0  0  0  0  0
   -1.4620   12.2290   22.3200 H   0  0  0  0  0  0  0  0  0  0  0  0
   -0.1300   10.7010   23.7210 H   0  0  0  0  0  0  0  0  0  0  0  0
    1.1060    8.8410   22.7270 H   0  0  0  0  0  0  0  0  0  0  0  0
   -0.2930    9.9990   18.8210 H   0  0  0  0  0  0  0  0  0  0  0  0
    1.1750    8.2430   20.0390 N   0  0  0  0  0  0  0  0  0  0  0  0
    1.9730    8.3130   18.9130 C   0  0  0  0  0  0  0  0  0  0  0  0
    2.2420    9.3090   18.2530 O   0  0  0  0  0  0  0  0  0  0  0  0
    1.0900    7.3040   20.4240 H   0  0  0  0  0  0  0  0  0  0  0  0
    2.5360    6.9770   18.5200 C   0  0  0  0  0  0  0  0  0  0  0  0
    1.9040    5.8090   18.9290 C   0  0  0  0  0  0  0  0  0  0  0  0
    2.4530    4.5820   18.5450 C   0  0  0  0  0  0  0  0  0  0  0  0
    1.8680    3.3620   18.9210 C   0  0  0  0  0  0  0  0  0  0  0  0
    2.4360    2.1490   18.5230 C   0  0  0  0  0  0  0  0  0  0  0  0
    3.5920    2.1400   17.7470 C   0  0  0  0  0  0  0  0  0  0  0  0
    4.1860    3.3440   17.3640 C   0  0  0  0  0  0  0  0  0  0  0  0
    3.6230    4.5710   17.7590 C   0  0  0  0  0  0  0  0  0  0  0  0
    4.1760    5.8050   17.4040 C   0  0  0  0  0  0  0  0  0  0  0  0
    3.6690    7.0070   17.7620 N   0  0  0  0  0  0  0  0  0  0  0  0
    1.0030    5.8620   19.5330 H   0  0  0  0  0  0  0  0  0  0  0  0
    0.9650    3.3450   19.5270 H   0  0  0  0  0  0  0  0  0  0  0  0
    1.9740    1.2110   18.8210 H   0  0  0  0  0  0  0  0  0  0  0  0
    4.0320    1.1940   17.4390 H   0  0  0  0  0  0  0  0  0  0  0  0
    5.0880    3.3180   16.7580 H   0  0  0  0  0  0  0  0  0  0  0  0
    5.0780    5.8590   16.7990 H   0  0  0  0  0  0  0  0  0  0  0  0
   -1.8150   12.1750   19.6100 C   0  0  2  0  0  0  0  0  0  0  0  0
   -2.8350   12.1890   20.0130 H   0  0  0  0  0  0  0  0  0  0  0  0
   -1.8960   11.7300   18.1470 C   0  0  0  0  0  0  0  0  0  0  0  0
   -2.9300   11.5360   17.8410 H   0  0  0  0  0  0  0  0  0  0  0  0
   -1.4790   12.4710   17.4570 H   0  0  0  0  0  0  0  0  0  0  0  0
   -1.3370   10.7980   17.9990 H   0  0  0  0  0  0  0  0  0  0  0  0
   -1.1240   13.8720   19.7330 S   0  0  0  0  0  0  0  0  0  0  0  0
    0.5480   13.5890   19.4070 C   0  0  0  0  0  0  0  0  0  0  0  0
    1.0720   13.1100   18.3030 N   0  0  0  0  0  0  0  0  0  0  0  0
    2.4370   13.0490   18.4790 N   0  0  0  0  0  0  0  0  0  0  0  0
    2.7010   13.4980   19.6850 C   0  0  0  0  0  0  0  0  0  0  0  0
    1.5410   13.8490   20.3070 N   0  0  0  0  0  0  0  0  0  0  0  0
    3.6820   13.5820   20.1320 H   0  0  0  0  0  0  0  0  0  0  0  0
    1.4230   14.3870   21.6350 C   0  0  0  0  0  0  0  0  0  0  0  0
    1.0190   13.6150   22.2940 H   0  0  0  0  0  0  0  0  0  0  0  0
    0.7450   15.2450   21.6230 H   0  0  0  0  0  0  0  0  0  0  0  0
    2.4110   14.7100   21.9720 H   0  0  0  0  0  0  0  0  0  0  0  0
  1  2  1  0  0  0  0
  2  7  1  0  0  0  0
  2  3  2  0  0  0  0
  3  8  1  0  0  0  0
  4  3  1  0  0  0  0
  4  9  1  0  0  0  0
  5  4  2  0  0  0  0
  6  1  2  0  0  0  0
  6  5  1  0  0  0  0
 10  6  1  0  0  0  0
 11 14  1  0  0  0  0
 11  5  1  0  0  0  0
 12 11  1  0  0  0  0
 13 12  2  0  0  0  0
 15 12  1  0  0  0  0
 15 16  1  0  0  0  0
 16 25  1  0  0  0  0
 17 18  1  0  0  0  0
 17 16  2  0  0  0  0
 18 26  1  0  0  0  0
 19 27  1  0  0  0  0
 19 18  2  0  0  0  0
 20 19  1  0  0  0  0
 21 20  2  0  0  0  0
 21 22  1  0  0  0  0
 22 17  1  0  0  0  0
 23 22  2  0  0  0  0
 23 24  1  0  0  0  0
 24 15  2  0  0  0  0
 28 20  1  0  0  0  0
 29 21  1  0  0  0  0
 30 23  1  0  0  0  0
 31 37  1  0  0  0  0
 31 32  1  1  0  0  0
 31  1  1  0  0  0  0
 33 31  1  0  0  0  0
 34 33  1  0  0  0  0
 35 33  1  0  0  0  0
 36 33  1  0  0  0  0
 38 37  1  0  0  0  0
 38 42  1  0  0  0  0
 39 40  1  0  0  0  0
 39 38  2  0  0  0  0
 40 41  2  0  0  0  0
 41 43  1  0  0  0  0
 41 42  1  0  0  0  0
 42 44  1  0  0  0  0
 44 47  1  0  0  0  0
 44 45  1  0  0  0  0
 46 44  1  0  0  0  0
M  END
>  <MODEL>
28

>  <REMARK>
 VINA RESULT:    -6.809      2.544      3.939
 INTER + INTRA:          -9.745
 INTER:                  -9.158
 INTRA:                  -0.587
 UNBOUND:                -0.548
  Name = 
  7 active torsions:
  status: ('A' for Active; 'I' for Inactive)
    1  A    between atoms: C_1  and  C_2
    2  A    between atoms: C_2  and  C_3
    3  A    between atoms: C_2  and  S_22
    4  A    between atoms: C_7  and  N_9
    5  A    between atoms: C_10  and  C_11
    6  A    between atoms: S_22  and  C_23
    7  A    between atoms: N_27  and  C_28
                            x       y       z     vdW  Elec       q    Type
                         _______ _______ _______ _____ _____    ______ ____

>  <TORSDO>
F 7

$$$$
=
 OpenBabel07192307433D

 47 50  0  0  1  0  0  0  0  0999 V2000
   -0.3200   12.0890   20.7270 C   0  0  0  0  0  0  0  0  0  0  0  0
   -1.2510   12.4310   19.7350 C   0  0  0  0  0  0  0  0  0  0  0  0
   -1.4700   11.5890   18.6460 C   0  0  0  0  0  0  0  0  0  0  0  0
   -0.7670   10.3870   18.5310 C   0  0  0  0  0  0  0  0  0  0  0  0
    0.1580   10.0180   19.5060 C   0  0  0  0  0  0  0  0  0  0  0  0
    0.3740   10.8710   20.5980 C   0  0  0  0  0  0  0  0  0  0  0  0
   -1.8160   13.3600   19.8020 H   0  0  0  0  0  0  0  0  0  0  0  0
   -2.1920   11.8640   17.8810 H   0  0  0  0  0  0  0  0  0  0  0  0
   -0.9660    9.7600   17.6680 H   0  0  0  0  0  0  0  0  0  0  0  0
    1.0850   10.5800   21.3670 H   0  0  0  0  0  0  0  0  0  0  0  0
    0.9000    8.8260   19.4660 N   0  0  0  0  0  0  0  0  0  0  0  0
    1.9780    8.5100   18.6610 C   0  0  0  0  0  0  0  0  0  0  0  0
    2.5030    9.2160   17.8090 O   0  0  0  0  0  0  0  0  0  0  0  0
    0.6320    8.0800   20.1040 H   0  0  0  0  0  0  0  0  0  0  0  0
    2.5080    7.1290   18.9210 C   0  0  0  0  0  0  0  0  0  0  0  0
    1.9710    6.3600   19.9470 C   0  0  0  0  0  0  0  0  0  0  0  0
    2.4860    5.0790   20.1630 C   0  0  0  0  0  0  0  0  0  0  0  0
    1.9920    4.2460   21.1790 C   0  0  0  0  0  0  0  0  0  0  0  0
    2.5240    2.9690   21.3730 C   0  0  0  0  0  0  0  0  0  0  0  0
    3.5530    2.5090   20.5570 C   0  0  0  0  0  0  0  0  0  0  0  0
    4.0560    3.3240   19.5410 C   0  0  0  0  0  0  0  0  0  0  0  0
    3.5290    4.6110   19.3370 C   0  0  0  0  0  0  0  0  0  0  0  0
    3.9950    5.4680   18.3350 C   0  0  0  0  0  0  0  0  0  0  0  0
    3.5170    6.7130   18.1040 N   0  0  0  0  0  0  0  0  0  0  0  0
    1.1670    6.7580   20.5600 H   0  0  0  0  0  0  0  0  0  0  0  0
    1.1880    4.5850   21.8300 H   0  0  0  0  0  0  0  0  0  0  0  0
    2.1330    2.3330   22.1650 H   0  0  0  0  0  0  0  0  0  0  0  0
    3.9650    1.5140   20.7110 H   0  0  0  0  0  0  0  0  0  0  0  0
    4.8600    2.9480   18.9130 H   0  0  0  0  0  0  0  0  0  0  0  0
    4.7960    5.1620   17.6670 H   0  0  0  0  0  0  0  0  0  0  0  0
   -0.1050   13.0240   21.9080 C   0  0  2  0  0  0  0  0  0  0  0  0
    0.7830   12.6790   22.4510 H   0  0  0  0  0  0  0  0  0  0  0  0
   -1.2860   13.0080   22.8830 C   0  0  0  0  0  0  0  0  0  0  0  0
   -2.2450   13.0020   22.3550 H   0  0  0  0  0  0  0  0  0  0  0  0
   -1.2700   12.1390   23.5510 H   0  0  0  0  0  0  0  0  0  0  0  0
   -1.2720   13.9040   23.5160 H   0  0  0  0  0  0  0  0  0  0  0  0
    0.2140   14.7290   21.3050 S   0  0  0  0  0  0  0  0  0  0  0  0
    1.9230   14.6960   21.0620 C   0  0  0  0  0  0  0  0  0  0  0  0
    2.8570   14.8930   21.9630 N   0  0  0  0  0  0  0  0  0  0  0  0
    4.0770   14.7770   21.3360 N   0  0  0  0  0  0  0  0  0  0  0  0
    3.8470   14.5080   20.0710 C   0  0  0  0  0  0  0  0  0  0  0  0
    2.5030   14.4480   19.8520 N   0  0  0  0  0  0  0  0  0  0  0  0
    4.5960   14.3560   19.3060 H   0  0  0  0  0  0  0  0  0  0  0  0
    1.8630   14.1710   18.5950 C   0  0  0  0  0  0  0  0  0  0  0  0
    2.6300   14.0610   17.8250 H   0  0  0  0  0  0  0  0  0  0  0  0
    1.2000   15.0000   18.3320 H   0  0  0  0  0  0  0  0  0  0  0  0
    1.2760   13.2540   18.6940 H   0  0  0  0  0  0  0  0  0  0  0  0
  1 31  1  0  0  0  0
  2  7  1  0  0  0  0
  2  1  2  0  0  0  0
  3  2  1  0  0  0  0
  4  3  2  0  0  0  0
  4  5  1  0  0  0  0
  5  6  2  0  0  0  0
  6  1  1  0  0  0  0
  6 10  1  0  0  0  0
  8  3  1  0  0  0  0
  9  4  1  0  0  0  0
 11  5  1  0  0  0  0
 11 14  1  0  0  0  0
 12 15  1  0  0  0  0
 12 11  1  0  0  0  0
 13 12  2  0  0  0  0
 15 16  1  0  0  0  0
 16 17  2  0  0  0  0
 16 25  1  0  0  0  0
 17 18  1  0  0  0  0
 18 19  2  0  0  0  0
 18 26  1  0  0  0  0
 19 27  1  0  0  0  0
 20 28  1  0  0  0  0
 20 19  1  0  0  0  0
 21 20  2  0  0  0  0
 22 21  1  0  0  0  0
 22 17  1  0  0  0  0
 23 22  2  0  0  0  0
 24 23  1  0  0  0  0
 24 15  2  0  0  0  0
 29 21  1  0  0  0  0
 30 23  1  0  0  0  0
 31 32  1  1  0  0  0
 31 33  1  0  0  0  0
 33 36  1  0  0  0  0
 33 35  1  0  0  0  0
 34 33  1  0  0  0  0
 37 31  1  0  0  0  0
 38 37  1  0  0  0  0
 38 39  2  0  0  0  0
 40 39  1  0  0  0  0
 41 40  2  0  0  0  0
 42 41  1  0  0  0  0
 42 38  1  0  0  0  0
 43 41  1  0  0  0  0
 44 47  1  0  0  0  0
 44 42  1  0  0  0  0
 45 44  1  0  0  0  0
 46 44  1  0  0  0  0
M  END
>  <MODEL>
29

>  <REMARK>
 VINA RESULT:    -6.794      3.300      5.164
 INTER + INTRA:          -9.726
 INTER:                  -8.785
 INTRA:                  -0.941
 UNBOUND:                -0.548
  Name = 
  7 active torsions:
  status: ('A' for Active; 'I' for Inactive)
    1  A    between atoms: C_1  and  C_2
    2  A    between atoms: C_2  and  C_3
    3  A    between atoms: C_2  and  S_22
    4  A    between atoms: C_7  and  N_9
    5  A    between atoms: C_10  and  C_11
    6  A    between atoms: S_22  and  C_23
    7  A    between atoms: N_27  and  C_28
                            x       y       z     vdW  Elec       q    Type
                         _______ _______ _______ _____ _____    ______ ____

>  <TORSDO>
F 7

$$$$
=
 OpenBabel07192307433D

 47 50  0  0  1  0  0  0  0  0999 V2000
    2.7700    5.4930   18.6200 C   0  0  0  0  0  0  0  0  0  0  0  0
    2.5790    4.4500   19.5380 C   0  0  0  0  0  0  0  0  0  0  0  0
    2.0160    4.6980   20.7890 C   0  0  0  0  0  0  0  0  0  0  0  0
    1.6270    5.9930   21.1420 C   0  0  0  0  0  0  0  0  0  0  0  0
    1.7970    7.0470   20.2470 C   0  0  0  0  0  0  0  0  0  0  0  0
    2.3660    6.7890   18.9910 C   0  0  0  0  0  0  0  0  0  0  0  0
    2.8700    3.4310   19.2860 H   0  0  0  0  0  0  0  0  0  0  0  0
    1.8740    3.8840   21.4940 H   0  0  0  0  0  0  0  0  0  0  0  0
    1.1920    6.1440   22.1250 H   0  0  0  0  0  0  0  0  0  0  0  0
    2.4880    7.6070   18.2850 H   0  0  0  0  0  0  0  0  0  0  0  0
    1.4280    8.3740   20.5240 N   0  0  0  0  0  0  0  0  0  0  0  0
    0.3020    8.8360   21.1780 C   0  0  0  0  0  0  0  0  0  0  0  0
   -0.6110    8.1690   21.6500 O   0  0  0  0  0  0  0  0  0  0  0  0
    2.0550    9.1140   20.2140 H   0  0  0  0  0  0  0  0  0  0  0  0
    0.2690   10.3340   21.2830 C   0  0  0  0  0  0  0  0  0  0  0  0
   -0.5590   10.9460   22.2160 C   0  0  0  0  0  0  0  0  0  0  0  0
   -0.5660   12.3430   22.2890 C   0  0  0  0  0  0  0  0  0  0  0  0
   -1.3760   13.0300   23.2080 C   0  0  0  0  0  0  0  0  0  0  0  0
   -1.3640   14.4250   23.2610 C   0  0  0  0  0  0  0  0  0  0  0  0
   -0.5450   15.1510   22.4000 C   0  0  0  0  0  0  0  0  0  0  0  0
    0.2670   14.4830   21.4820 C   0  0  0  0  0  0  0  0  0  0  0  0
    0.2630   13.0790   21.4190 C   0  0  0  0  0  0  0  0  0  0  0  0
    1.0560   12.3610   20.5190 C   0  0  0  0  0  0  0  0  0  0  0  0
    1.0820   11.0110   20.4240 N   0  0  0  0  0  0  0  0  0  0  0  0
   -1.1820   10.3430   22.8700 H   0  0  0  0  0  0  0  0  0  0  0  0
   -2.0250   12.4830   23.8890 H   0  0  0  0  0  0  0  0  0  0  0  0
   -1.9970   14.9460   23.9760 H   0  0  0  0  0  0  0  0  0  0  0  0
   -0.5380   16.2380   22.4440 H   0  0  0  0  0  0  0  0  0  0  0  0
    0.9010   15.0660   20.8170 H   0  0  0  0  0  0  0  0  0  0  0  0
    1.7160   12.8740   19.8230 H   0  0  0  0  0  0  0  0  0  0  0  0
    3.3820    5.1930   17.2600 C   0  0  2  0  0  0  0  0  0  0  0  0
    2.5890    5.2810   16.5070 H   0  0  0  0  0  0  0  0  0  0  0  0
    3.9490    3.7720   17.1790 C   0  0  0  0  0  0  0  0  0  0  0  0
    4.3920    3.5710   16.1980 H   0  0  0  0  0  0  0  0  0  0  0  0
    4.7190    3.5820   17.9350 H   0  0  0  0  0  0  0  0  0  0  0  0
    3.1530    3.0330   17.3320 H   0  0  0  0  0  0  0  0  0  0  0  0
    4.6820    6.4320   16.8740 S   0  0  0  0  0  0  0  0  0  0  0  0
    6.0710    5.7140   17.6050 C   0  0  0  0  0  0  0  0  0  0  0  0
    6.4080    5.7460   18.8730 N   0  0  0  0  0  0  0  0  0  0  0  0
    7.5870    5.0480   19.0130 N   0  0  0  0  0  0  0  0  0  0  0  0
    7.9300    4.6090   17.8230 C   0  0  0  0  0  0  0  0  0  0  0  0
    7.0040    5.0050   16.9040 N   0  0  0  0  0  0  0  0  0  0  0  0
    8.8080    4.0230   17.5890 H   0  0  0  0  0  0  0  0  0  0  0  0
    7.0310    4.7120   15.4980 C   0  0  0  0  0  0  0  0  0  0  0  0
    7.7510    5.3750   15.0130 H   0  0  0  0  0  0  0  0  0  0  0  0
    6.0380    4.8800   15.0710 H   0  0  0  0  0  0  0  0  0  0  0  0
    7.3120    3.6650   15.3610 H   0  0  0  0  0  0  0  0  0  0  0  0
  1  6  2  0  0  0  0
  1  2  1  0  0  0  0
  2  3  2  0  0  0  0
  3  4  1  0  0  0  0
  3  8  1  0  0  0  0
  4  9  1  0  0  0  0
  5 11  1  0  0  0  0
  5  4  2  0  0  0  0
  6  5  1  0  0  0  0
  7  2  1  0  0  0  0
 10  6  1  0  0  0  0
 11 12  1  0  0  0  0
 12 15  1  0  0  0  0
 12 13  2  0  0  0  0
 14 11  1  0  0  0  0
 15 16  1  0  0  0  0
 16 17  2  0  0  0  0
 16 25  1  0  0  0  0
 17 18  1  0  0  0  0
 18 19  2  0  0  0  0
 18 26  1  0  0  0  0
 19 27  1  0  0  0  0
 20 28  1  0  0  0  0
 20 19  1  0  0  0  0
 21 20  2  0  0  0  0
 22 21  1  0  0  0  0
 22 17  1  0  0  0  0
 23 22  2  0  0  0  0
 24 23  1  0  0  0  0
 24 15  2  0  0  0  0
 29 21  1  0  0  0  0
 30 23  1  0  0  0  0
 31 32  1  6  0  0  0
 31  1  1  0  0  0  0
 33 31  1  0  0  0  0
 33 36  1  0  0  0  0
 33 35  1  0  0  0  0
 34 33  1  0  0  0  0
 37 31  1  0  0  0  0
 37 38  1  0  0  0  0
 38 39  2  0  0  0  0
 39 40  1  0  0  0  0
 41 40  2  0  0  0  0
 42 38  1  0  0  0  0
 42 41  1  0  0  0  0
 43 41  1  0  0  0  0
 44 42  1  0  0  0  0
 45 44  1  0  0  0  0
 46 44  1  0  0  0  0
 47 44  1  0  0  0  0
M  END
>  <MODEL>
30

>  <REMARK>
 VINA RESULT:    -6.785      3.639      9.431
 INTER + INTRA:          -9.714
 INTER:                  -9.184
 INTRA:                  -0.530
 UNBOUND:                -0.548
  Name = 
  7 active torsions:
  status: ('A' for Active; 'I' for Inactive)
    1  A    between atoms: C_1  and  C_2
    2  A    between atoms: C_2  and  C_3
    3  A    between atoms: C_2  and  S_22
    4  A    between atoms: C_7  and  N_9
    5  A    between atoms: C_10  and  C_11
    6  A    between atoms: S_22  and  C_23
    7  A    between atoms: N_27  and  C_28
                            x       y       z     vdW  Elec       q    Type
                         _______ _______ _______ _____ _____    ______ ____

>  <TORSDO>
F 7

$$$$
=
 OpenBabel07192307433D

 47 50  0  0  1  0  0  0  0  0999 V2000
   -0.5470   12.3540   19.0170 C   0  0  0  0  0  0  0  0  0  0  0  0
   -1.6990   12.3470   18.2170 C   0  0  0  0  0  0  0  0  0  0  0  0
   -2.0810   11.1940   17.5330 C   0  0  0  0  0  0  0  0  0  0  0  0
   -1.3220   10.0260   17.6410 C   0  0  0  0  0  0  0  0  0  0  0  0
   -0.1770   10.0020   18.4350 C   0  0  0  0  0  0  0  0  0  0  0  0
    0.2020   11.1660   19.1190 C   0  0  0  0  0  0  0  0  0  0  0  0
   -2.3100   13.2420   18.1200 H   0  0  0  0  0  0  0  0  0  0  0  0
   -2.9740   11.1990   16.9140 H   0  0  0  0  0  0  0  0  0  0  0  0
   -1.6530    9.1500   17.0930 H   0  0  0  0  0  0  0  0  0  0  0  0
    1.0870   11.1480   19.7490 H   0  0  0  0  0  0  0  0  0  0  0  0
    0.6360    8.8680   18.5990 N   0  0  0  0  0  0  0  0  0  0  0  0
    1.9690    8.7100   18.2700 C   0  0  0  0  0  0  0  0  0  0  0  0
    2.7140    9.5390   17.7610 O   0  0  0  0  0  0  0  0  0  0  0  0
    0.2150    8.0390   19.0130 H   0  0  0  0  0  0  0  0  0  0  0  0
    2.4890    7.3420   18.6070 C   0  0  0  0  0  0  0  0  0  0  0  0
    1.9240    6.6220   19.6530 C   0  0  0  0  0  0  0  0  0  0  0  0
    2.4310    5.3510   19.9410 C   0  0  0  0  0  0  0  0  0  0  0  0
    1.9090    4.5670   20.9820 C   0  0  0  0  0  0  0  0  0  0  0  0
    2.4320    3.3000   21.2480 C   0  0  0  0  0  0  0  0  0  0  0  0
    3.4820    2.8010   20.4800 C   0  0  0  0  0  0  0  0  0  0  0  0
    4.0120    3.5680   19.4410 C   0  0  0  0  0  0  0  0  0  0  0  0
    3.4930    4.8450   19.1640 C   0  0  0  0  0  0  0  0  0  0  0  0
    3.9860    5.6540   18.1370 C   0  0  0  0  0  0  0  0  0  0  0  0
    3.5170    6.8880   17.8360 N   0  0  0  0  0  0  0  0  0  0  0  0
    1.1060    7.0480   20.2270 H   0  0  0  0  0  0  0  0  0  0  0  0
    1.0890    4.9370   21.5950 H   0  0  0  0  0  0  0  0  0  0  0  0
    2.0200    2.7020   22.0580 H   0  0  0  0  0  0  0  0  0  0  0  0
    3.8870    1.8140   20.6900 H   0  0  0  0  0  0  0  0  0  0  0  0
    4.8310    3.1630   18.8510 H   0  0  0  0  0  0  0  0  0  0  0  0
    4.8040    5.3170   17.5040 H   0  0  0  0  0  0  0  0  0  0  0  0
   -0.1550   13.6250   19.7570 C   0  0  2  0  0  0  0  0  0  0  0  0
   -1.0560   14.2420   19.8660 H   0  0  0  0  0  0  0  0  0  0  0  0
    0.8860   14.4460   18.9910 C   0  0  0  0  0  0  0  0  0  0  0  0
    1.3240   13.8730   18.1670 H   0  0  0  0  0  0  0  0  0  0  0  0
    0.4690   15.3670   18.5690 H   0  0  0  0  0  0  0  0  0  0  0  0
    1.7090   14.7360   19.6550 H   0  0  0  0  0  0  0  0  0  0  0  0
    0.4600   13.2040   21.4360 S   0  0  0  0  0  0  0  0  0  0  0  0
   -1.0170   12.9460   22.2910 C   0  0  0  0  0  0  0  0  0  0  0  0
   -1.9630   13.8260   22.5260 N   0  0  0  0  0  0  0  0  0  0  0  0
   -2.9560   13.1930   23.2410 N   0  0  0  0  0  0  0  0  0  0  0  0
   -2.5850   11.9460   23.4150 C   0  0  0  0  0  0  0  0  0  0  0  0
   -1.3690   11.7440   22.8340 N   0  0  0  0  0  0  0  0  0  0  0  0
   -3.1450   11.1820   23.9370 H   0  0  0  0  0  0  0  0  0  0  0  0
   -0.6390   10.5060   22.8090 C   0  0  0  0  0  0  0  0  0  0  0  0
   -1.2590    9.7400   22.3380 H   0  0  0  0  0  0  0  0  0  0  0  0
   -0.4010   10.2020   23.8320 H   0  0  0  0  0  0  0  0  0  0  0  0
    0.2880   10.6550   22.2500 H   0  0  0  0  0  0  0  0  0  0  0  0
  1  6  1  0  0  0  0
  1 31  1  0  0  0  0
  2  1  2  0  0  0  0
  3  4  2  0  0  0  0
  3  2  1  0  0  0  0
  4  5  1  0  0  0  0
  5 11  1  0  0  0  0
  5  6  2  0  0  0  0
  6 10  1  0  0  0  0
  7  2  1  0  0  0  0
  8  3  1  0  0  0  0
  9  4  1  0  0  0  0
 11 14  1  0  0  0  0
 12 11  1  0  0  0  0
 12 15  1  0  0  0  0
 13 12  2  0  0  0  0
 15 16  1  0  0  0  0
 16 17  2  0  0  0  0
 16 25  1  0  0  0  0
 17 18  1  0  0  0  0
 18 19  2  0  0  0  0
 18 26  1  0  0  0  0
 19 27  1  0  0  0  0
 20 28  1  0  0  0  0
 20 19  1  0  0  0  0
 21 20  2  0  0  0  0
 22 21  1  0  0  0  0
 22 17  1  0  0  0  0
 23 22  2  0  0  0  0
 24 23  1  0  0  0  0
 24 15  2  0  0  0  0
 29 21  1  0  0  0  0
 30 23  1  0  0  0  0
 31 32  1  1  0  0  0
 31 37  1  0  0  0  0
 33 36  1  0  0  0  0
 33 31  1  0  0  0  0
 34 33  1  0  0  0  0
 35 33  1  0  0  0  0
 37 38  1  0  0  0  0
 38 39  2  0  0  0  0
 38 42  1  0  0  0  0
 39 40  1  0  0  0  0
 40 41  2  0  0  0  0
 41 43  1  0  0  0  0
 42 41  1  0  0  0  0
 44 42  1  0  0  0  0
 44 46  1  0  0  0  0
 45 44  1  0  0  0  0
 47 44  1  0  0  0  0
M  END
>  <MODEL>
31

>  <REMARK>
 VINA RESULT:    -6.780      2.969      4.754
 INTER + INTRA:          -9.706
 INTER:                  -8.899
 INTRA:                  -0.807
 UNBOUND:                -0.548
  Name = 
  7 active torsions:
  status: ('A' for Active; 'I' for Inactive)
    1  A    between atoms: C_1  and  C_2
    2  A    between atoms: C_2  and  C_3
    3  A    between atoms: C_2  and  S_22
    4  A    between atoms: C_7  and  N_9
    5  A    between atoms: C_10  and  C_11
    6  A    between atoms: S_22  and  C_23
    7  A    between atoms: N_27  and  C_28
                            x       y       z     vdW  Elec       q    Type
                         _______ _______ _______ _____ _____    ______ ____

>  <TORSDO>
F 7

$$$$
=
 OpenBabel07192307433D

 47 50  0  0  1  0  0  0  0  0999 V2000
    2.7780    6.3420   18.9170 C   0  0  0  0  0  0  0  0  0  0  0  0
    3.4450    6.8320   17.7850 C   0  0  0  0  0  0  0  0  0  0  0  0
    3.2440    8.1420   17.3530 C   0  0  0  0  0  0  0  0  0  0  0  0
    2.3760    8.9880   18.0480 C   0  0  0  0  0  0  0  0  0  0  0  0
    1.7060    8.5320   19.1810 C   0  0  0  0  0  0  0  0  0  0  0  0
    1.9130    7.2120   19.6090 C   0  0  0  0  0  0  0  0  0  0  0  0
    4.1300    6.1940   17.2280 H   0  0  0  0  0  0  0  0  0  0  0  0
    3.7640    8.5110   16.4730 H   0  0  0  0  0  0  0  0  0  0  0  0
    2.2470   10.0000   17.6790 H   0  0  0  0  0  0  0  0  0  0  0  0
    1.4010    6.8560   20.5000 H   0  0  0  0  0  0  0  0  0  0  0  0
    0.8220    9.3200   19.9370 N   0  0  0  0  0  0  0  0  0  0  0  0
    0.8320    9.5610   21.2970 C   0  0  0  0  0  0  0  0  0  0  0  0
    1.6240    9.1250   22.1250 O   0  0  0  0  0  0  0  0  0  0  0  0
    0.0660    9.7880   19.4430 H   0  0  0  0  0  0  0  0  0  0  0  0
   -0.2830   10.4680   21.7320 C   0  0  0  0  0  0  0  0  0  0  0  0
   -0.8300   11.3760   20.8330 C   0  0  0  0  0  0  0  0  0  0  0  0
   -1.8680   12.2060   21.2690 C   0  0  0  0  0  0  0  0  0  0  0  0
   -2.4690   13.1450   20.4160 C   0  0  0  0  0  0  0  0  0  0  0  0
   -3.5040   13.9620   20.8750 C   0  0  0  0  0  0  0  0  0  0  0  0
   -3.9520   13.8510   22.1890 C   0  0  0  0  0  0  0  0  0  0  0  0
   -3.3650   12.9210   23.0500 C   0  0  0  0  0  0  0  0  0  0  0  0
   -2.3220   12.0940   22.5980 C   0  0  0  0  0  0  0  0  0  0  0  0
   -1.7000   11.1480   23.4170 C   0  0  0  0  0  0  0  0  0  0  0  0
   -0.6930   10.3330   23.0250 N   0  0  0  0  0  0  0  0  0  0  0  0
   -0.4520   11.4290   19.8160 H   0  0  0  0  0  0  0  0  0  0  0  0
   -2.1350   13.2500   19.3850 H   0  0  0  0  0  0  0  0  0  0  0  0
   -3.9610   14.6870   20.2050 H   0  0  0  0  0  0  0  0  0  0  0  0
   -4.7580   14.4890   22.5440 H   0  0  0  0  0  0  0  0  0  0  0  0
   -3.7270   12.8480   24.0730 H   0  0  0  0  0  0  0  0  0  0  0  0
   -2.0080   11.0160   24.4520 H   0  0  0  0  0  0  0  0  0  0  0  0
    3.0200    4.9100   19.3710 C   0  0  2  0  0  0  0  0  0  0  0  0
    2.6770    4.2420   18.5720 H   0  0  0  0  0  0  0  0  0  0  0  0
    2.2360    4.5630   20.6400 C   0  0  0  0  0  0  0  0  0  0  0  0
    2.7950    4.8280   21.5440 H   0  0  0  0  0  0  0  0  0  0  0  0
    1.2660    5.0710   20.6900 H   0  0  0  0  0  0  0  0  0  0  0  0
    2.0400    3.4850   20.6870 H   0  0  0  0  0  0  0  0  0  0  0  0
    4.8170    4.6320   19.6240 S   0  0  0  0  0  0  0  0  0  0  0  0
    5.3520    4.3360   18.0090 C   0  0  0  0  0  0  0  0  0  0  0  0
    4.7320    3.6470   17.0800 N   0  0  0  0  0  0  0  0  0  0  0  0
    5.5160    3.6670   15.9480 N   0  0  0  0  0  0  0  0  0  0  0  0
    6.5890    4.3720   16.2230 C   0  0  0  0  0  0  0  0  0  0  0  0
    6.5300    4.8150   17.5110 N   0  0  0  0  0  0  0  0  0  0  0  0
    7.4050    4.5800   15.5440 H   0  0  0  0  0  0  0  0  0  0  0  0
    7.5170    5.6220   18.1730 C   0  0  0  0  0  0  0  0  0  0  0  0
    8.1200    6.1330   17.4190 H   0  0  0  0  0  0  0  0  0  0  0  0
    8.1630    4.9830   18.7820 H   0  0  0  0  0  0  0  0  0  0  0  0
    7.0070    6.3420   18.8190 H   0  0  0  0  0  0  0  0  0  0  0  0
  1 31  1  0  0  0  0
  1  6  1  0  0  0  0
  2  1  2  0  0  0  0
  3  2  1  0  0  0  0
  3  4  2  0  0  0  0
  4  5  1  0  0  0  0
  5  6  2  0  0  0  0
  5 11  1  0  0  0  0
  6 10  1  0  0  0  0
  7  2  1  0  0  0  0
  8  3  1  0  0  0  0
  9  4  1  0  0  0  0
 11 12  1  0  0  0  0
 12 15  1  0  0  0  0
 12 13  2  0  0  0  0
 14 11  1  0  0  0  0
 15 24  1  0  0  0  0
 16 17  1  0  0  0  0
 16 15  2  0  0  0  0
 17 22  1  0  0  0  0
 18 19  1  0  0  0  0
 18 17  2  0  0  0  0
 19 20  2  0  0  0  0
 20 28  1  0  0  0  0
 20 21  1  0  0  0  0
 21 29  1  0  0  0  0
 22 21  2  0  0  0  0
 22 23  1  0  0  0  0
 23 30  1  0  0  0  0
 24 23  2  0  0  0  0
 25 16  1  0  0  0  0
 26 18  1  0  0  0  0
 27 19  1  0  0  0  0
 31 32  1  6  0  0  0
 31 37  1  0  0  0  0
 31 33  1  0  0  0  0
 33 36  1  0  0  0  0
 33 35  1  0  0  0  0
 33 34  1  0  0  0  0
 38 37  1  0  0  0  0
 39 38  2  0  0  0  0
 40 41  2  0  0  0  0
 40 39  1  0  0  0  0
 41 42  1  0  0  0  0
 42 38  1  0  0  0  0
 42 44  1  0  0  0  0
 43 41  1  0  0  0  0
 44 46  1  0  0  0  0
 44 47  1  0  0  0  0
 45 44  1  0  0  0  0
M  END
>  <MODEL>
32

>  <REMARK>
 VINA RESULT:    -6.760      3.370      9.463
 INTER + INTRA:          -9.679
 INTER:                  -9.447
 INTRA:                  -0.232
 UNBOUND:                -0.548
  Name = 
  7 active torsions:
  status: ('A' for Active; 'I' for Inactive)
    1  A    between atoms: C_1  and  C_2
    2  A    between atoms: C_2  and  C_3
    3  A    between atoms: C_2  and  S_22
    4  A    between atoms: C_7  and  N_9
    5  A    between atoms: C_10  and  C_11
    6  A    between atoms: S_22  and  C_23
    7  A    between atoms: N_27  and  C_28
                            x       y       z     vdW  Elec       q    Type
                         _______ _______ _______ _____ _____    ______ ____

>  <TORSDO>
F 7

$$$$
=
 OpenBabel07192307433D

 47 50  0  0  1  0  0  0  0  0999 V2000
   -0.1330   12.5940   19.0330 C   0  0  0  0  0  0  0  0  0  0  0  0
    0.8210   13.4910   18.5300 C   0  0  0  0  0  0  0  0  0  0  0  0
    2.0690   13.0370   18.1070 C   0  0  0  0  0  0  0  0  0  0  0  0
    2.3850   11.6780   18.1740 C   0  0  0  0  0  0  0  0  0  0  0  0
    1.4540   10.7630   18.6610 C   0  0  0  0  0  0  0  0  0  0  0  0
    0.2000   11.2270   19.0860 C   0  0  0  0  0  0  0  0  0  0  0  0
    0.5990   14.5550   18.4630 H   0  0  0  0  0  0  0  0  0  0  0  0
    2.8020   13.7400   17.7210 H   0  0  0  0  0  0  0  0  0  0  0  0
    3.3670   11.3650   17.8350 H   0  0  0  0  0  0  0  0  0  0  0  0
   -0.5330   10.5150   19.4550 H   0  0  0  0  0  0  0  0  0  0  0  0
    1.6920    9.3820   18.7560 N   0  0  0  0  0  0  0  0  0  0  0  0
    1.6030    8.5670   19.8690 C   0  0  0  0  0  0  0  0  0  0  0  0
    1.2970    8.8950   21.0090 O   0  0  0  0  0  0  0  0  0  0  0  0
    1.9670    8.8890   17.9080 H   0  0  0  0  0  0  0  0  0  0  0  0
    1.9320    7.1340   19.5630 C   0  0  0  0  0  0  0  0  0  0  0  0
    1.5600    6.1320   20.4520 C   0  0  0  0  0  0  0  0  0  0  0  0
    1.8810    4.8070   20.1370 C   0  0  0  0  0  0  0  0  0  0  0  0
    1.5360    3.7430   20.9870 C   0  0  0  0  0  0  0  0  0  0  0  0
    1.8670    2.4290   20.6500 C   0  0  0  0  0  0  0  0  0  0  0  0
    2.5450    2.1610   19.4630 C   0  0  0  0  0  0  0  0  0  0  0  0
    2.8940    3.2080   18.6070 C   0  0  0  0  0  0  0  0  0  0  0  0
    2.5660    4.5350   18.9370 C   0  0  0  0  0  0  0  0  0  0  0  0
    2.8920    5.6190   18.1170 C   0  0  0  0  0  0  0  0  0  0  0  0
    2.5970    6.9100   18.3950 N   0  0  0  0  0  0  0  0  0  0  0  0
    1.0320    6.3840   21.3660 H   0  0  0  0  0  0  0  0  0  0  0  0
    1.0070    3.9300   21.9190 H   0  0  0  0  0  0  0  0  0  0  0  0
    1.5950    1.6140   21.3160 H   0  0  0  0  0  0  0  0  0  0  0  0
    2.8010    1.1360   19.2030 H   0  0  0  0  0  0  0  0  0  0  0  0
    3.4230    2.9800   17.6850 H   0  0  0  0  0  0  0  0  0  0  0  0
    3.4210    5.4700   17.1780 H   0  0  0  0  0  0  0  0  0  0  0  0
   -1.4900   13.1150   19.4820 C   0  0  2  0  0  0  0  0  0  0  0  0
   -1.9220   13.6870   18.6510 H   0  0  0  0  0  0  0  0  0  0  0  0
   -1.3820   14.0520   20.6890 C   0  0  0  0  0  0  0  0  0  0  0  0
   -1.2840   13.4930   21.6250 H   0  0  0  0  0  0  0  0  0  0  0  0
   -0.5260   14.7330   20.6190 H   0  0  0  0  0  0  0  0  0  0  0  0
   -2.2830   14.6710   20.7750 H   0  0  0  0  0  0  0  0  0  0  0  0
   -2.6070   11.7060   19.8550 S   0  0  0  0  0  0  0  0  0  0  0  0
   -3.5860   11.6550   18.4340 C   0  0  0  0  0  0  0  0  0  0  0  0
   -4.7020   12.3100   18.2140 N   0  0  0  0  0  0  0  0  0  0  0  0
   -5.1470   11.9730   16.9550 N   0  0  0  0  0  0  0  0  0  0  0  0
   -4.2830   11.1240   16.4460 C   0  0  0  0  0  0  0  0  0  0  0  0
   -3.2830   10.8940   17.3420 N   0  0  0  0  0  0  0  0  0  0  0  0
   -4.3410   10.6680   15.4670 H   0  0  0  0  0  0  0  0  0  0  0  0
   -2.1530   10.0290   17.1430 C   0  0  0  0  0  0  0  0  0  0  0  0
   -1.7380   10.2120   16.1490 H   0  0  0  0  0  0  0  0  0  0  0  0
   -2.4740    8.9860   17.2160 H   0  0  0  0  0  0  0  0  0  0  0  0
   -1.4110   10.2350   17.9190 H   0  0  0  0  0  0  0  0  0  0  0  0
  1  6  1  0  0  0  0
  1 31  1  0  0  0  0
  2  1  2  0  0  0  0
  3  4  2  0  0  0  0
  3  2  1  0  0  0  0
  4  5  1  0  0  0  0
  5 11  1  0  0  0  0
  5  6  2  0  0  0  0
  6 10  1  0  0  0  0
  7  2  1  0  0  0  0
  8  3  1  0  0  0  0
  9  4  1  0  0  0  0
 11 12  1  0  0  0  0
 12 13  2  0  0  0  0
 14 11  1  0  0  0  0
 15 12  1  0  0  0  0
 15 16  1  0  0  0  0
 16 25  1  0  0  0  0
 17 16  2  0  0  0  0
 17 18  1  0  0  0  0
 18 26  1  0  0  0  0
 19 18  2  0  0  0  0
 19 27  1  0  0  0  0
 20 19  1  0  0  0  0
 21 22  1  0  0  0  0
 21 20  2  0  0  0  0
 22 17  1  0  0  0  0
 23 24  1  0  0  0  0
 23 22  2  0  0  0  0
 24 15  2  0  0  0  0
 28 20  1  0  0  0  0
 29 21  1  0  0  0  0
 30 23  1  0  0  0  0
 31 32  1  6  0  0  0
 31 37  1  0  0  0  0
 31 33  1  0  0  0  0
 33 36  1  0  0  0  0
 33 34  1  0  0  0  0
 35 33  1  0  0  0  0
 38 37  1  0  0  0  0
 39 38  2  0  0  0  0
 40 39  1  0  0  0  0
 41 40  2  0  0  0  0
 41 42  1  0  0  0  0
 42 38  1  0  0  0  0
 43 41  1  0  0  0  0
 44 46  1  0  0  0  0
 44 42  1  0  0  0  0
 44 47  1  0  0  0  0
 45 44  1  0  0  0  0
M  END
>  <MODEL>
33

>  <REMARK>
 VINA RESULT:    -6.709      2.153      3.525
 INTER + INTRA:          -9.611
 INTER:                  -9.062
 INTRA:                  -0.548
 UNBOUND:                -0.548
  Name = 
  7 active torsions:
  status: ('A' for Active; 'I' for Inactive)
    1  A    between atoms: C_1  and  C_2
    2  A    between atoms: C_2  and  C_3
    3  A    between atoms: C_2  and  S_22
    4  A    between atoms: C_7  and  N_9
    5  A    between atoms: C_10  and  C_11
    6  A    between atoms: S_22  and  C_23
    7  A    between atoms: N_27  and  C_28
                            x       y       z     vdW  Elec       q    Type
                         _______ _______ _______ _____ _____    ______ ____

>  <TORSDO>
F 7

$$$$
