=
 OpenBabel07192307433D

 67 71  0  0  1  0  0  0  0  0999 V2000
    3.7140    4.2550   17.9750 C   0  0  0  0  0  0  0  0  0  0  0  0
    3.4110    5.6070   17.8110 C   0  0  0  0  0  0  0  0  0  0  0  0
    2.7040    6.2140   18.8290 C   0  0  0  0  0  0  0  0  0  0  0  0
    2.3300    5.5460   19.9970 C   0  0  0  0  0  0  0  0  0  0  0  0
    1.5800    6.4930   20.8800 C   0  0  0  0  0  0  0  0  0  0  0  0
    1.5370    7.7290   20.1120 N   0  0  0  0  0  0  0  0  0  0  0  0
    2.1870    7.5860   18.8810 C   0  0  0  0  0  0  0  0  0  0  0  0
    2.3310    8.3570   17.9530 O   0  0  0  0  0  0  0  0  0  0  0  0
    2.6510    4.1970   20.1990 C   0  0  0  0  0  0  0  0  0  0  0  0
    3.3500    3.5600   19.1510 C   0  0  0  0  0  0  0  0  0  0  0  0
    3.6980    6.1560   16.9190 H   0  0  0  0  0  0  0  0  0  0  0  0
    2.1250    6.6620   21.8150 H   0  0  0  0  0  0  0  0  0  0  0  0
    0.5600    6.1340   21.0590 H   0  0  0  0  0  0  0  0  0  0  0  0
    3.6290    2.5060   19.2280 H   0  0  0  0  0  0  0  0  0  0  0  0
    6.4140    5.3030   17.0060 C   0  0  1  0  0  0  0  0  0  0  0  0
    7.6000    5.4710   16.0370 C   0  0  0  0  0  0  0  0  0  0  0  0
    7.0930    4.8550   14.7420 C   0  0  1  0  0  0  0  0  0  0  0  0
    6.2740    3.6660   15.2460 C   0  0  0  0  0  0  0  0  0  0  0  0
    5.6750    4.1440   16.4830 N   0  0  0  0  0  0  0  0  0  0  0  0
    4.4970    3.5750   16.9260 C   0  0  0  0  0  0  0  0  0  0  0  0
    4.0320    2.5390   16.4600 O   0  0  0  0  0  0  0  0  0  0  0  0
    5.7640    6.1810   16.9440 H   0  0  0  0  0  0  0  0  0  0  0  0
    8.4800    4.9160   16.3900 H   0  0  0  0  0  0  0  0  0  0  0  0
    7.8800    6.5250   15.9330 H   0  0  0  0  0  0  0  0  0  0  0  0
    7.8950    4.5570   14.0600 H   0  0  0  0  0  0  0  0  0  0  0  0
    6.9160    2.8150   15.5030 H   0  0  0  0  0  0  0  0  0  0  0  0
    5.5030    3.3500   14.5360 H   0  0  0  0  0  0  0  0  0  0  0  0
    6.9130    5.1190   18.4360 C   0  0  0  0  0  0  0  0  0  0  0  0
    8.0080    5.1570   18.4830 H   0  0  0  0  0  0  0  0  0  0  0  0
    6.6060    4.1600   18.8600 H   0  0  0  0  0  0  0  0  0  0  0  0
    6.5150    5.9090   19.0830 H   0  0  0  0  0  0  0  0  0  0  0  0
    6.2710    5.8110   14.0700 O   0  0  0  0  0  0  0  0  0  0  0  0
    5.5950    5.3170   13.5720 H   0  0  0  0  0  0  0  0  0  0  0  0
    0.8880    8.8980   20.5980 C   0  0  0  0  0  0  0  0  0  0  0  0
    0.7240    9.1070   21.9760 C   0  0  0  0  0  0  0  0  0  0  0  0
    0.1140   10.2650   22.4650 C   0  0  0  0  0  0  0  0  0  0  0  0
   -0.3500   11.2390   21.5870 C   0  0  0  0  0  0  0  0  0  0  0  0
   -0.2190   11.0590   20.2060 C   0  0  0  0  0  0  0  0  0  0  0  0
    0.4020    9.8870   19.7320 C   0  0  0  0  0  0  0  0  0  0  0  0
    1.0720    8.3870   22.7110 H   0  0  0  0  0  0  0  0  0  0  0  0
    0.0080   10.4090   23.5390 H   0  0  0  0  0  0  0  0  0  0  0  0
   -0.8150   12.1360   21.9920 H   0  0  0  0  0  0  0  0  0  0  0  0
    0.4940    9.7670   18.6570 H   0  0  0  0  0  0  0  0  0  0  0  0
   -0.6940   12.1070   19.2090 C   0  0  2  0  0  0  0  0  0  0  0  0
   -0.2600   11.8720   18.2270 H   0  0  0  0  0  0  0  0  0  0  0  0
   -0.1600   13.4900   19.6050 C   0  0  0  0  0  0  0  0  0  0  0  0
   -0.7340   13.9050   20.4400 H   0  0  0  0  0  0  0  0  0  0  0  0
   -0.2280   14.1930   18.7670 H   0  0  0  0  0  0  0  0  0  0  0  0
    0.8910   13.4430   19.9160 H   0  0  0  0  0  0  0  0  0  0  0  0
   -2.2290   12.1600   19.0420 C   0  0  0  0  0  0  0  0  0  0  0  0
   -2.5540   13.2100   19.0420 H   0  0  0  0  0  0  0  0  0  0  0  0
   -2.7310   11.6970   19.9010 H   0  0  0  0  0  0  0  0  0  0  0  0
   -2.7140   11.5270   17.7750 C   0  0  0  0  0  0  0  0  0  0  0  0
   -3.9270   10.9600   17.4200 C   0  0  0  0  0  0  0  0  0  0  0  0
   -3.7450   10.5710   16.0720 C   0  0  0  0  0  0  0  0  0  0  0  0
   -2.5310   10.8640   15.6080 N   0  0  0  0  0  0  0  0  0  0  0  0
   -1.9200   11.4280   16.6620 N   0  0  0  0  0  0  0  0  0  0  0  0
   -4.4550   10.0890   15.4110 H   0  0  0  0  0  0  0  0  0  0  0  0
   -0.9590   11.7340   16.5470 H   0  0  0  0  0  0  0  0  0  0  0  0
   -5.1470   10.7860   18.2380 C   0  0  0  0  0  0  0  0  0  0  0  0
   -6.0190   10.5760   17.6110 H   0  0  0  0  0  0  0  0  0  0  0  0
   -5.0290    9.9500   18.9350 H   0  0  0  0  0  0  0  0  0  0  0  0
   -5.3460   11.6920   18.8190 H   0  0  0  0  0  0  0  0  0  0  0  0
    2.1730    3.4790   21.4460 C   0  0  0  0  0  0  0  0  0  0  0  0
    0.8280    3.2520   21.3850 F   0  0  0  0  0  0  0  0  0  0  0  0
    2.3570    4.2350   22.5710 F   0  0  0  0  0  0  0  0  0  0  0  0
    2.9850    1.9180   21.7300 Cl  0  0  0  0  0  0  0  0  0  0  0  0
  1 10  1  0  0  0  0
  2  1  2  0  0  0  0
  2  3  1  0  0  0  0
  3  7  1  0  0  0  0
  3  4  2  0  0  0  0
  4  9  1  0  0  0  0
  4  5  1  0  0  0  0
  5 13  1  0  0  0  0
  5 12  1  0  0  0  0
  6 34  1  0  0  0  0
  6  5  1  0  0  0  0
  7  6  1  0  0  0  0
  8  7  2  0  0  0  0
  9 64  1  0  0  0  0
 10 14  1  0  0  0  0
 10  9  2  0  0  0  0
 11  2  1  0  0  0  0
 15 22  1  6  0  0  0
 15 28  1  0  0  0  0
 16 23  1  0  0  0  0
 16 15  1  0  0  0  0
 17 25  1  6  0  0  0
 17 18  1  0  0  0  0
 17 16  1  0  0  0  0
 18 26  1  0  0  0  0
 18 19  1  0  0  0  0
 19 20  1  0  0  0  0
 19 15  1  0  0  0  0
 20  1  1  0  0  0  0
 21 20  2  0  0  0  0
 24 16  1  0  0  0  0
 27 18  1  0  0  0  0
 28 29  1  0  0  0  0
 28 30  1  0  0  0  0
 28 31  1  0  0  0  0
 32 17  1  0  0  0  0
 33 32  1  0  0  0  0
 34 35  1  0  0  0  0
 35 36  2  0  0  0  0
 35 40  1  0  0  0  0
 36 41  1  0  0  0  0
 37 42  1  0  0  0  0
 37 36  1  0  0  0  0
 38 37  2  0  0  0  0
 39 38  1  0  0  0  0
 39 34  2  0  0  0  0
 43 39  1  0  0  0  0
 44 45  1  6  0  0  0
 44 46  1  0  0  0  0
 44 38  1  0  0  0  0
 46 49  1  0  0  0  0
 46 47  1  0  0  0  0
 48 46  1  0  0  0  0
 50 51  1  0  0  0  0
 50 44  1  0  0  0  0
 50 52  1  0  0  0  0
 53 50  1  0  0  0  0
 54 53  2  0  0  0  0
 54 60  1  0  0  0  0
 55 54  1  0  0  0  0
 56 55  2  0  0  0  0
 56 57  1  0  0  0  0
 57 53  1  0  0  0  0
 58 55  1  0  0  0  0
 59 57  1  0  0  0  0
 60 63  1  0  0  0  0
 60 62  1  0  0  0  0
 61 60  1  0  0  0  0
 64 67  1  0  0  0  0
 64 66  1  0  0  0  0
 65 64  1  0  0  0  0
M  END
>  <MODEL>
1

>  <REMARK>
 VINA RESULT:    -9.747      0.000      0.000
 INTER + INTRA:         -13.321
 INTER:                 -12.369
 INTRA:                  -0.952
 UNBOUND:                 0.984
  Name = 
  10 active torsions:
  status: ('A' for Active; 'I' for Inactive)
    1  A    between atoms: C_1  and  C_2
    2  A    between atoms: C_4  and  O_38
    3  A    between atoms: C_7  and  C_9
    4  A    between atoms: N_14  and  C_17
    5  A    between atoms: C_21  and  C_23
    6  A    between atoms: C_23  and  C_24
    7  A    between atoms: C_23  and  C_25
    8  A    between atoms: C_25  and  C_26
    9  A    between atoms: C_27  and  C_31
   10  A    between atoms: C_32  and  C_34
                            x       y       z     vdW  Elec       q    Type
                         _______ _______ _______ _____ _____    ______ ____

>  <TORSDO>
F 10

$$$$
=
 OpenBabel07192307433D

 67 71  0  0  1  0  0  0  0  0999 V2000
   -0.4770   10.4800   18.6090 C   0  0  0  0  0  0  0  0  0  0  0  0
    0.3540    9.5850   17.9340 C   0  0  0  0  0  0  0  0  0  0  0  0
    1.0470    8.6750   18.7070 C   0  0  0  0  0  0  0  0  0  0  0  0
    0.9150    8.6020   20.0950 C   0  0  0  0  0  0  0  0  0  0  0  0
    1.8040    7.5160   20.6120 C   0  0  0  0  0  0  0  0  0  0  0  0
    2.4620    7.0040   19.4180 N   0  0  0  0  0  0  0  0  0  0  0  0
    2.0400    7.6870   18.2730 C   0  0  0  0  0  0  0  0  0  0  0  0
    2.3770    7.5910   17.1090 O   0  0  0  0  0  0  0  0  0  0  0  0
    0.0620    9.4680   20.7930 C   0  0  0  0  0  0  0  0  0  0  0  0
   -0.6300   10.4210   20.0140 C   0  0  0  0  0  0  0  0  0  0  0  0
    0.4680    9.6090   16.8550 H   0  0  0  0  0  0  0  0  0  0  0  0
    1.2100    6.7180   21.0720 H   0  0  0  0  0  0  0  0  0  0  0  0
    2.5530    7.9200   21.3020 H   0  0  0  0  0  0  0  0  0  0  0  0
   -1.3080   11.1390   20.4840 H   0  0  0  0  0  0  0  0  0  0  0  0
   -2.9680    9.6740   17.0360 C   0  0  1  0  0  0  0  0  0  0  0  0
   -4.0600    9.7980   15.9570 C   0  0  0  0  0  0  0  0  0  0  0  0
   -3.5430   10.9070   15.0530 C   0  0  1  0  0  0  0  0  0  0  0  0
   -2.9020   11.8700   16.0520 C   0  0  0  0  0  0  0  0  0  0  0  0
   -2.3350   11.0000   17.0720 N   0  0  0  0  0  0  0  0  0  0  0  0
   -1.2620   11.4460   17.8190 C   0  0  0  0  0  0  0  0  0  0  0  0
   -0.8890   12.6160   17.8310 O   0  0  0  0  0  0  0  0  0  0  0  0
   -2.2200    8.9440   16.7160 H   0  0  0  0  0  0  0  0  0  0  0  0
   -5.0200   10.1000   16.3990 H   0  0  0  0  0  0  0  0  0  0  0  0
   -4.2100    8.8480   15.4330 H   0  0  0  0  0  0  0  0  0  0  0  0
   -4.3270   11.3790   14.4530 H   0  0  0  0  0  0  0  0  0  0  0  0
   -3.6530   12.5000   16.5430 H   0  0  0  0  0  0  0  0  0  0  0  0
   -2.1270   12.4970   15.6000 H   0  0  0  0  0  0  0  0  0  0  0  0
   -3.5790    9.2490   18.3690 C   0  0  0  0  0  0  0  0  0  0  0  0
   -4.0880   10.0880   18.8590 H   0  0  0  0  0  0  0  0  0  0  0  0
   -2.8270    8.8750   19.0680 H   0  0  0  0  0  0  0  0  0  0  0  0
   -4.3130    8.4490   18.2130 H   0  0  0  0  0  0  0  0  0  0  0  0
   -2.5740   10.3540   14.1590 O   0  0  0  0  0  0  0  0  0  0  0  0
   -1.8780    9.9410   14.7020 H   0  0  0  0  0  0  0  0  0  0  0  0
    3.4180    5.9520   19.4750 C   0  0  0  0  0  0  0  0  0  0  0  0
    3.1070    4.7330   20.0970 C   0  0  0  0  0  0  0  0  0  0  0  0
    4.0280    3.6820   20.1330 C   0  0  0  0  0  0  0  0  0  0  0  0
    5.2830    3.8290   19.5520 C   0  0  0  0  0  0  0  0  0  0  0  0
    5.6360    5.0340   18.9370 C   0  0  0  0  0  0  0  0  0  0  0  0
    4.6930    6.0800   18.9080 C   0  0  0  0  0  0  0  0  0  0  0  0
    2.1410    4.5560   20.5600 H   0  0  0  0  0  0  0  0  0  0  0  0
    3.7590    2.7420   20.6110 H   0  0  0  0  0  0  0  0  0  0  0  0
    5.9800    2.9940   19.5860 H   0  0  0  0  0  0  0  0  0  0  0  0
    4.9870    7.0080   18.4260 H   0  0  0  0  0  0  0  0  0  0  0  0
    6.9910    5.2320   18.2720 C   0  0  2  0  0  0  0  0  0  0  0  0
    7.3800    4.2470   17.9790 H   0  0  0  0  0  0  0  0  0  0  0  0
    7.9910    5.8160   19.2790 C   0  0  0  0  0  0  0  0  0  0  0  0
    8.2160    6.8620   19.0440 H   0  0  0  0  0  0  0  0  0  0  0  0
    8.9330    5.2580   19.2670 H   0  0  0  0  0  0  0  0  0  0  0  0
    7.5970    5.7840   20.3030 H   0  0  0  0  0  0  0  0  0  0  0  0
    6.9420    6.1130   17.0030 C   0  0  0  0  0  0  0  0  0  0  0  0
    7.8890    6.6620   16.9110 H   0  0  0  0  0  0  0  0  0  0  0  0
    6.1640    6.8810   17.0910 H   0  0  0  0  0  0  0  0  0  0  0  0
    6.7370    5.3320   15.7430 C   0  0  0  0  0  0  0  0  0  0  0  0
    5.7390    4.4630   15.3340 C   0  0  0  0  0  0  0  0  0  0  0  0
    6.1230    4.0850   14.0260 C   0  0  0  0  0  0  0  0  0  0  0  0
    7.2590    4.6600   13.6340 N   0  0  0  0  0  0  0  0  0  0  0  0
    7.6190    5.3980   14.6950 N   0  0  0  0  0  0  0  0  0  0  0  0
    5.6140    3.4150   13.3450 H   0  0  0  0  0  0  0  0  0  0  0  0
    8.4790    5.9350   14.6310 H   0  0  0  0  0  0  0  0  0  0  0  0
    4.5390    4.0140   16.0730 C   0  0  0  0  0  0  0  0  0  0  0  0
    4.3390    4.6580   16.9350 H   0  0  0  0  0  0  0  0  0  0  0  0
    3.6550    4.0410   15.4270 H   0  0  0  0  0  0  0  0  0  0  0  0
    4.6730    2.9880   16.4280 H   0  0  0  0  0  0  0  0  0  0  0  0
   -0.0090    9.4120   22.3060 C   0  0  0  0  0  0  0  0  0  0  0  0
    1.2440    9.3870   22.8470 F   0  0  0  0  0  0  0  0  0  0  0  0
   -0.6110    8.2650   22.7440 F   0  0  0  0  0  0  0  0  0  0  0  0
   -0.8980   10.7760   23.0330 Cl  0  0  0  0  0  0  0  0  0  0  0  0
  1 10  1  0  0  0  0
  2  1  2  0  0  0  0
  2  3  1  0  0  0  0
  3  4  2  0  0  0  0
  4  5  1  0  0  0  0
  4  9  1  0  0  0  0
  5 12  1  0  0  0  0
  5 13  1  0  0  0  0
  6 34  1  0  0  0  0
  6  5  1  0  0  0  0
  7  3  1  0  0  0  0
  7  6  1  0  0  0  0
  8  7  2  0  0  0  0
  9 64  1  0  0  0  0
 10 14  1  0  0  0  0
 10  9  2  0  0  0  0
 11  2  1  0  0  0  0
 15 22  1  6  0  0  0
 15 19  1  0  0  0  0
 15 28  1  0  0  0  0
 16 23  1  0  0  0  0
 16 15  1  0  0  0  0
 17 25  1  6  0  0  0
 17 16  1  0  0  0  0
 17 18  1  0  0  0  0
 18 26  1  0  0  0  0
 18 19  1  0  0  0  0
 19 20  1  0  0  0  0
 20 21  2  0  0  0  0
 20  1  1  0  0  0  0
 24 16  1  0  0  0  0
 27 18  1  0  0  0  0
 28 29  1  0  0  0  0
 28 30  1  0  0  0  0
 31 28  1  0  0  0  0
 32 33  1  0  0  0  0
 32 17  1  0  0  0  0
 34 35  1  0  0  0  0
 35 36  2  0  0  0  0
 35 40  1  0  0  0  0
 36 41  1  0  0  0  0
 37 42  1  0  0  0  0
 37 36  1  0  0  0  0
 38 37  2  0  0  0  0
 39 38  1  0  0  0  0
 39 34  2  0  0  0  0
 43 39  1  0  0  0  0
 44 45  1  6  0  0  0
 44 38  1  0  0  0  0
 44 46  1  0  0  0  0
 46 49  1  0  0  0  0
 47 46  1  0  0  0  0
 48 46  1  0  0  0  0
 50 52  1  0  0  0  0
 50 44  1  0  0  0  0
 51 50  1  0  0  0  0
 53 50  1  0  0  0  0
 54 53  2  0  0  0  0
 54 60  1  0  0  0  0
 55 54  1  0  0  0  0
 56 55  2  0  0  0  0
 56 57  1  0  0  0  0
 57 53  1  0  0  0  0
 58 55  1  0  0  0  0
 59 57  1  0  0  0  0
 60 63  1  0  0  0  0
 60 61  1  0  0  0  0
 62 60  1  0  0  0  0
 64 66  1  0  0  0  0
 64 65  1  0  0  0  0
 64 67  1  0  0  0  0
M  END
>  <MODEL>
2

>  <REMARK>
 VINA RESULT:    -9.271      2.749      8.920
 INTER + INTRA:         -12.623
 INTER:                 -11.226
 INTRA:                  -1.397
 UNBOUND:                 0.984
  Name = 
  10 active torsions:
  status: ('A' for Active; 'I' for Inactive)
    1  A    between atoms: C_1  and  C_2
    2  A    between atoms: C_4  and  O_38
    3  A    between atoms: C_7  and  C_9
    4  A    between atoms: N_14  and  C_17
    5  A    between atoms: C_21  and  C_23
    6  A    between atoms: C_23  and  C_24
    7  A    between atoms: C_23  and  C_25
    8  A    between atoms: C_25  and  C_26
    9  A    between atoms: C_27  and  C_31
   10  A    between atoms: C_32  and  C_34
                            x       y       z     vdW  Elec       q    Type
                         _______ _______ _______ _____ _____    ______ ____

>  <TORSDO>
F 10

$$$$
=
 OpenBabel07192307433D

 67 71  0  0  1  0  0  0  0  0999 V2000
    3.7740    4.3130   17.9830 C   0  0  0  0  0  0  0  0  0  0  0  0
    3.4290    5.6450   17.7510 C   0  0  0  0  0  0  0  0  0  0  0  0
    2.6660    6.2670   18.7180 C   0  0  0  0  0  0  0  0  0  0  0  0
    2.2760    5.6350   19.9000 C   0  0  0  0  0  0  0  0  0  0  0  0
    1.4620    6.5900   20.7160 C   0  0  0  0  0  0  0  0  0  0  0  0
    1.4030    7.7900   19.8940 N   0  0  0  0  0  0  0  0  0  0  0  0
    2.0990    7.6200   18.6940 C   0  0  0  0  0  0  0  0  0  0  0  0
    2.2480    8.3570   17.7390 O   0  0  0  0  0  0  0  0  0  0  0  0
    2.6370    4.3090   20.1710 C   0  0  0  0  0  0  0  0  0  0  0  0
    3.3940    3.6540   19.1750 C   0  0  0  0  0  0  0  0  0  0  0  0
    3.7270    6.1660   16.8460 H   0  0  0  0  0  0  0  0  0  0  0  0
    1.9690    6.8180   21.6600 H   0  0  0  0  0  0  0  0  0  0  0  0
    0.4510    6.2010   20.8760 H   0  0  0  0  0  0  0  0  0  0  0  0
    3.7080    2.6150   19.3070 H   0  0  0  0  0  0  0  0  0  0  0  0
    6.4710    5.4140   17.0660 C   0  0  1  0  0  0  0  0  0  0  0  0
    7.6850    5.5850   16.1330 C   0  0  0  0  0  0  0  0  0  0  0  0
    7.2460    4.9000   14.8470 C   0  0  1  0  0  0  0  0  0  0  0  0
    6.4500    3.7040   15.3710 C   0  0  0  0  0  0  0  0  0  0  0  0
    5.7910    4.2110   16.5660 N   0  0  0  0  0  0  0  0  0  0  0  0
    4.6170    3.6190   16.9910 C   0  0  0  0  0  0  0  0  0  0  0  0
    4.2030    2.5490   16.5520 O   0  0  0  0  0  0  0  0  0  0  0  0
    5.7950    6.2660   16.9450 H   0  0  0  0  0  0  0  0  0  0  0  0
    8.5700    5.0750   16.5390 H   0  0  0  0  0  0  0  0  0  0  0  0
    7.9340    6.6430   15.9950 H   0  0  0  0  0  0  0  0  0  0  0  0
    8.0820    4.6030   14.2060 H   0  0  0  0  0  0  0  0  0  0  0  0
    7.1090    2.8870   15.6850 H   0  0  0  0  0  0  0  0  0  0  0  0
    5.7160    3.3330   14.6490 H   0  0  0  0  0  0  0  0  0  0  0  0
    6.9240    5.3050   18.5190 C   0  0  0  0  0  0  0  0  0  0  0  0
    7.9350    4.8860   18.5890 H   0  0  0  0  0  0  0  0  0  0  0  0
    6.2670    4.6610   19.1090 H   0  0  0  0  0  0  0  0  0  0  0  0
    6.9300    6.2940   18.9910 H   0  0  0  0  0  0  0  0  0  0  0  0
    6.4180    5.8000   14.1080 O   0  0  0  0  0  0  0  0  0  0  0  0
    6.6340    6.7030   14.4030 H   0  0  0  0  0  0  0  0  0  0  0  0
    0.6960    8.9540   20.3080 C   0  0  0  0  0  0  0  0  0  0  0  0
    0.8960    9.4980   21.5860 C   0  0  0  0  0  0  0  0  0  0  0  0
    0.2280   10.6570   21.9920 C   0  0  0  0  0  0  0  0  0  0  0  0
   -0.6580   11.2960   21.1300 C   0  0  0  0  0  0  0  0  0  0  0  0
   -0.8950   10.7740   19.8550 C   0  0  0  0  0  0  0  0  0  0  0  0
   -0.2100    9.6070   19.4620 C   0  0  0  0  0  0  0  0  0  0  0  0
    1.5800    9.0500   22.3000 H   0  0  0  0  0  0  0  0  0  0  0  0
    0.4080   11.0670   22.9840 H   0  0  0  0  0  0  0  0  0  0  0  0
   -1.1590   12.2010   21.4660 H   0  0  0  0  0  0  0  0  0  0  0  0
   -0.4100    9.2190   18.4680 H   0  0  0  0  0  0  0  0  0  0  0  0
   -1.8410   11.4500   18.8720 C   0  0  2  0  0  0  0  0  0  0  0  0
   -2.5240   12.0980   19.4390 H   0  0  0  0  0  0  0  0  0  0  0  0
   -2.7140   10.3980   18.1740 C   0  0  0  0  0  0  0  0  0  0  0  0
   -3.3210    9.8500   18.9030 H   0  0  0  0  0  0  0  0  0  0  0  0
   -2.0980    9.6720   17.6340 H   0  0  0  0  0  0  0  0  0  0  0  0
   -3.4000   10.8580   17.4520 H   0  0  0  0  0  0  0  0  0  0  0  0
   -1.1270   12.3280   17.8200 C   0  0  0  0  0  0  0  0  0  0  0  0
   -1.8810   12.8930   17.2530 H   0  0  0  0  0  0  0  0  0  0  0  0
   -0.6070   11.7070   17.0810 H   0  0  0  0  0  0  0  0  0  0  0  0
   -0.1670   13.3110   18.4150 C   0  0  0  0  0  0  0  0  0  0  0  0
    1.2120   13.3100   18.5400 C   0  0  0  0  0  0  0  0  0  0  0  0
    1.5040   14.5420   19.1710 C   0  0  0  0  0  0  0  0  0  0  0  0
    0.4130   15.2640   19.4240 N   0  0  0  0  0  0  0  0  0  0  0  0
   -0.5870   14.4910   18.9710 N   0  0  0  0  0  0  0  0  0  0  0  0
    2.4710   14.9400   19.4520 H   0  0  0  0  0  0  0  0  0  0  0  0
   -1.5360   14.8390   19.0640 H   0  0  0  0  0  0  0  0  0  0  0  0
    2.1820   12.2740   18.1210 C   0  0  0  0  0  0  0  0  0  0  0  0
    3.1400   12.7200   17.8350 H   0  0  0  0  0  0  0  0  0  0  0  0
    2.3740   11.5710   18.9380 H   0  0  0  0  0  0  0  0  0  0  0  0
    1.7920   11.7110   17.2680 H   0  0  0  0  0  0  0  0  0  0  0  0
    2.1420    3.6270   21.4310 C   0  0  0  0  0  0  0  0  0  0  0  0
    0.7850    3.4820   21.3990 F   0  0  0  0  0  0  0  0  0  0  0  0
    2.3950    4.3740   22.5470 F   0  0  0  0  0  0  0  0  0  0  0  0
    2.8630    2.0200   21.7070 Cl  0  0  0  0  0  0  0  0  0  0  0  0
  1 10  1  0  0  0  0
  2  1  2  0  0  0  0
  2  3  1  0  0  0  0
  3  4  2  0  0  0  0
  4  9  1  0  0  0  0
  4  5  1  0  0  0  0
  5 13  1  0  0  0  0
  5 12  1  0  0  0  0
  6 34  1  0  0  0  0
  6  5  1  0  0  0  0
  7  3  1  0  0  0  0
  7  6  1  0  0  0  0
  8  7  2  0  0  0  0
  9 64  1  0  0  0  0
 10 14  1  0  0  0  0
 10  9  2  0  0  0  0
 11  2  1  0  0  0  0
 15 22  1  6  0  0  0
 15 28  1  0  0  0  0
 16 23  1  0  0  0  0
 16 15  1  0  0  0  0
 17 25  1  6  0  0  0
 17 18  1  0  0  0  0
 17 16  1  0  0  0  0
 18 26  1  0  0  0  0
 18 19  1  0  0  0  0
 19 20  1  0  0  0  0
 19 15  1  0  0  0  0
 20  1  1  0  0  0  0
 21 20  2  0  0  0  0
 24 16  1  0  0  0  0
 27 18  1  0  0  0  0
 28 29  1  0  0  0  0
 28 31  1  0  0  0  0
 28 30  1  0  0  0  0
 32 33  1  0  0  0  0
 32 17  1  0  0  0  0
 34 35  1  0  0  0  0
 35 36  2  0  0  0  0
 35 40  1  0  0  0  0
 36 41  1  0  0  0  0
 37 42  1  0  0  0  0
 37 36  1  0  0  0  0
 38 37  2  0  0  0  0
 39 38  1  0  0  0  0
 39 34  2  0  0  0  0
 43 39  1  0  0  0  0
 44 45  1  1  0  0  0
 44 38  1  0  0  0  0
 46 44  1  0  0  0  0
 46 47  1  0  0  0  0
 48 46  1  0  0  0  0
 49 46  1  0  0  0  0
 50 53  1  0  0  0  0
 50 44  1  0  0  0  0
 51 50  1  0  0  0  0
 52 50  1  0  0  0  0
 53 54  2  0  0  0  0
 53 57  1  0  0  0  0
 54 55  1  0  0  0  0
 55 56  2  0  0  0  0
 55 58  1  0  0  0  0
 57 59  1  0  0  0  0
 57 56  1  0  0  0  0
 60 54  1  0  0  0  0
 60 62  1  0  0  0  0
 61 60  1  0  0  0  0
 63 60  1  0  0  0  0
 64 67  1  0  0  0  0
 64 66  1  0  0  0  0
 65 64  1  0  0  0  0
M  END
>  <MODEL>
3

>  <REMARK>
 VINA RESULT:    -9.174      1.351      2.497
 INTER + INTRA:         -12.480
 INTER:                 -10.966
 INTRA:                  -1.515
 UNBOUND:                 0.984
  Name = 
  10 active torsions:
  status: ('A' for Active; 'I' for Inactive)
    1  A    between atoms: C_1  and  C_2
    2  A    between atoms: C_4  and  O_38
    3  A    between atoms: C_7  and  C_9
    4  A    between atoms: N_14  and  C_17
    5  A    between atoms: C_21  and  C_23
    6  A    between atoms: C_23  and  C_24
    7  A    between atoms: C_23  and  C_25
    8  A    between atoms: C_25  and  C_26
    9  A    between atoms: C_27  and  C_31
   10  A    between atoms: C_32  and  C_34
                            x       y       z     vdW  Elec       q    Type
                         _______ _______ _______ _____ _____    ______ ____

>  <TORSDO>
F 10

$$$$
=
 OpenBabel07192307433D

 67 71  0  0  1  0  0  0  0  0999 V2000
    0.0720   10.5860   19.0250 C   0  0  0  0  0  0  0  0  0  0  0  0
    0.8810    9.7360   18.2690 C   0  0  0  0  0  0  0  0  0  0  0  0
    1.4470    8.6650   18.9300 C   0  0  0  0  0  0  0  0  0  0  0  0
    1.2110    8.3950   20.2800 C   0  0  0  0  0  0  0  0  0  0  0  0
    1.9780    7.1720   20.6720 C   0  0  0  0  0  0  0  0  0  0  0  0
    2.6800    6.7930   19.4550 N   0  0  0  0  0  0  0  0  0  0  0  0
    2.3930    7.6730   18.4070 C   0  0  0  0  0  0  0  0  0  0  0  0
    2.8050    7.7260   17.2650 O   0  0  0  0  0  0  0  0  0  0  0  0
    0.3770    9.2150   21.0520 C   0  0  0  0  0  0  0  0  0  0  0  0
   -0.1850   10.3290   20.3910 C   0  0  0  0  0  0  0  0  0  0  0  0
    1.0740    9.9130   17.2150 H   0  0  0  0  0  0  0  0  0  0  0  0
    1.2950    6.3670   20.9660 H   0  0  0  0  0  0  0  0  0  0  0  0
    2.7030    7.4020   21.4600 H   0  0  0  0  0  0  0  0  0  0  0  0
   -0.8390   11.0220   20.9270 H   0  0  0  0  0  0  0  0  0  0  0  0
    1.0900   13.4520   19.2890 C   0  0  1  0  0  0  0  0  0  0  0  0
    1.0120   14.9900   19.2450 C   0  0  0  0  0  0  0  0  0  0  0  0
   -0.4780   15.2670   19.1070 C   0  0  1  0  0  0  0  0  0  0  0  0
   -0.9340   14.1380   18.1810 C   0  0  0  0  0  0  0  0  0  0  0  0
   -0.1120   13.0030   18.5720 N   0  0  0  0  0  0  0  0  0  0  0  0
   -0.5810   11.7230   18.3500 C   0  0  0  0  0  0  0  0  0  0  0  0
   -1.5540   11.4740   17.6440 O   0  0  0  0  0  0  0  0  0  0  0  0
    1.0200   13.1120   20.3250 H   0  0  0  0  0  0  0  0  0  0  0  0
    1.5440   15.3880   18.3700 H   0  0  0  0  0  0  0  0  0  0  0  0
    1.4520   15.4360   20.1440 H   0  0  0  0  0  0  0  0  0  0  0  0
   -0.6990   16.2600   18.7030 H   0  0  0  0  0  0  0  0  0  0  0  0
   -0.7060   14.3600   17.1320 H   0  0  0  0  0  0  0  0  0  0  0  0
   -1.9980   13.9050   18.2900 H   0  0  0  0  0  0  0  0  0  0  0  0
    2.3950   12.9660   18.6640 C   0  0  0  0  0  0  0  0  0  0  0  0
    3.1410   13.7690   18.6250 H   0  0  0  0  0  0  0  0  0  0  0  0
    2.2540   12.6060   17.6420 H   0  0  0  0  0  0  0  0  0  0  0  0
    2.8130   12.1390   19.2510 H   0  0  0  0  0  0  0  0  0  0  0  0
   -1.0840   15.1670   20.3970 O   0  0  0  0  0  0  0  0  0  0  0  0
   -1.8790   14.6110   20.3030 H   0  0  0  0  0  0  0  0  0  0  0  0
    3.5490    5.6670   19.4030 C   0  0  0  0  0  0  0  0  0  0  0  0
    3.1310    4.4160   19.8840 C   0  0  0  0  0  0  0  0  0  0  0  0
    3.9660    3.2970   19.8120 C   0  0  0  0  0  0  0  0  0  0  0  0
    5.2390    3.4050   19.2610 C   0  0  0  0  0  0  0  0  0  0  0  0
    5.6960    4.6380   18.7860 C   0  0  0  0  0  0  0  0  0  0  0  0
    4.8390    5.7540   18.8650 C   0  0  0  0  0  0  0  0  0  0  0  0
    2.1470    4.2670   20.3170 H   0  0  0  0  0  0  0  0  0  0  0  0
    3.6150    2.3360   20.1810 H   0  0  0  0  0  0  0  0  0  0  0  0
    5.8670    2.5180   19.2090 H   0  0  0  0  0  0  0  0  0  0  0  0
    5.2140    6.7010   18.4910 H   0  0  0  0  0  0  0  0  0  0  0  0
    7.0740    4.7980   18.1580 C   0  0  2  0  0  0  0  0  0  0  0  0
    7.4020    3.8170   17.7890 H   0  0  0  0  0  0  0  0  0  0  0  0
    8.0910    5.2260   19.2250 C   0  0  0  0  0  0  0  0  0  0  0  0
    8.7720    5.9880   18.8310 H   0  0  0  0  0  0  0  0  0  0  0  0
    8.6950    4.3750   19.5570 H   0  0  0  0  0  0  0  0  0  0  0  0
    7.5960    5.6490   20.1080 H   0  0  0  0  0  0  0  0  0  0  0  0
    7.1080    5.7820   16.9680 C   0  0  0  0  0  0  0  0  0  0  0  0
    8.1070    6.2360   16.9060 H   0  0  0  0  0  0  0  0  0  0  0  0
    6.4150    6.6170   17.1320 H   0  0  0  0  0  0  0  0  0  0  0  0
    6.8140    5.1360   15.6500 C   0  0  0  0  0  0  0  0  0  0  0  0
    5.7270    4.4130   15.1870 C   0  0  0  0  0  0  0  0  0  0  0  0
    6.0600    4.1080   13.8470 C   0  0  0  0  0  0  0  0  0  0  0  0
    7.2480    4.5920   13.4860 N   0  0  0  0  0  0  0  0  0  0  0  0
    7.6910    5.1970   14.5990 N   0  0  0  0  0  0  0  0  0  0  0  0
    5.4780    3.5540   13.1200 H   0  0  0  0  0  0  0  0  0  0  0  0
    8.6020    5.6440   14.5660 H   0  0  0  0  0  0  0  0  0  0  0  0
    4.4900    4.0320   15.9050 C   0  0  0  0  0  0  0  0  0  0  0  0
    3.8390    3.4180   15.2750 H   0  0  0  0  0  0  0  0  0  0  0  0
    4.7270    3.4520   16.8020 H   0  0  0  0  0  0  0  0  0  0  0  0
    3.9380    4.9260   16.2100 H   0  0  0  0  0  0  0  0  0  0  0  0
    0.1940    8.9370   22.5310 C   0  0  0  0  0  0  0  0  0  0  0  0
    1.4030    8.8070   23.1510 F   0  0  0  0  0  0  0  0  0  0  0  0
   -0.4480    7.7500   22.7500 F   0  0  0  0  0  0  0  0  0  0  0  0
   -0.7340   10.1950   23.3870 Cl  0  0  0  0  0  0  0  0  0  0  0  0
  1 10  1  0  0  0  0
  2  3  1  0  0  0  0
  2  1  2  0  0  0  0
  3  4  2  0  0  0  0
  4  5  1  0  0  0  0
  4  9  1  0  0  0  0
  5 12  1  0  0  0  0
  5 13  1  0  0  0  0
  6  5  1  0  0  0  0
  7  3  1  0  0  0  0
  7  6  1  0  0  0  0
  8  7  2  0  0  0  0
  9 64  1  0  0  0  0
 10 14  1  0  0  0  0
 10  9  2  0  0  0  0
 11  2  1  0  0  0  0
 15 22  1  1  0  0  0
 16 15  1  0  0  0  0
 16 24  1  0  0  0  0
 17 25  1  6  0  0  0
 17 16  1  0  0  0  0
 17 32  1  0  0  0  0
 18 27  1  0  0  0  0
 18 19  1  0  0  0  0
 18 17  1  0  0  0  0
 19 15  1  0  0  0  0
 20 19  1  0  0  0  0
 20  1  1  0  0  0  0
 21 20  2  0  0  0  0
 23 16  1  0  0  0  0
 26 18  1  0  0  0  0
 28 31  1  0  0  0  0
 28 15  1  0  0  0  0
 29 28  1  0  0  0  0
 30 28  1  0  0  0  0
 33 32  1  0  0  0  0
 34  6  1  0  0  0  0
 34 35  1  0  0  0  0
 35 40  1  0  0  0  0
 36 35  2  0  0  0  0
 36 41  1  0  0  0  0
 37 36  1  0  0  0  0
 38 39  1  0  0  0  0
 38 37  2  0  0  0  0
 39 34  2  0  0  0  0
 42 37  1  0  0  0  0
 43 39  1  0  0  0  0
 44 45  1  6  0  0  0
 44 38  1  0  0  0  0
 44 46  1  0  0  0  0
 46 48  1  0  0  0  0
 46 49  1  0  0  0  0
 47 46  1  0  0  0  0
 50 52  1  0  0  0  0
 50 44  1  0  0  0  0
 51 50  1  0  0  0  0
 53 50  1  0  0  0  0
 54 53  2  0  0  0  0
 54 60  1  0  0  0  0
 55 54  1  0  0  0  0
 56 55  2  0  0  0  0
 56 57  1  0  0  0  0
 57 53  1  0  0  0  0
 58 55  1  0  0  0  0
 59 57  1  0  0  0  0
 60 63  1  0  0  0  0
 60 62  1  0  0  0  0
 61 60  1  0  0  0  0
 64 66  1  0  0  0  0
 64 65  1  0  0  0  0
 64 67  1  0  0  0  0
M  END
>  <MODEL>
4

>  <REMARK>
 VINA RESULT:    -9.014      2.877      9.045
 INTER + INTRA:         -12.246
 INTER:                 -10.919
 INTRA:                  -1.326
 UNBOUND:                 0.984
  Name = 
  10 active torsions:
  status: ('A' for Active; 'I' for Inactive)
    1  A    between atoms: C_1  and  C_2
    2  A    between atoms: C_4  and  O_38
    3  A    between atoms: C_7  and  C_9
    4  A    between atoms: N_14  and  C_17
    5  A    between atoms: C_21  and  C_23
    6  A    between atoms: C_23  and  C_24
    7  A    between atoms: C_23  and  C_25
    8  A    between atoms: C_25  and  C_26
    9  A    between atoms: C_27  and  C_31
   10  A    between atoms: C_32  and  C_34
                            x       y       z     vdW  Elec       q    Type
                         _______ _______ _______ _____ _____    ______ ____

>  <TORSDO>
F 10

$$$$
=
 OpenBabel07192307433D

 67 71  0  0  1  0  0  0  0  0999 V2000
   -1.0770   12.6030   21.1680 C   0  0  0  0  0  0  0  0  0  0  0  0
   -0.1220   11.7260   21.6820 C   0  0  0  0  0  0  0  0  0  0  0  0
    0.1410   10.5890   20.9450 C   0  0  0  0  0  0  0  0  0  0  0  0
   -0.4740   10.3190   19.7200 C   0  0  0  0  0  0  0  0  0  0  0  0
    0.0340    9.0120   19.1980 C   0  0  0  0  0  0  0  0  0  0  0  0
    0.9550    8.5580   20.2300 N   0  0  0  0  0  0  0  0  0  0  0  0
    1.0270    9.4710   21.2870 C   0  0  0  0  0  0  0  0  0  0  0  0
    1.6360    9.4390   22.3370 O   0  0  0  0  0  0  0  0  0  0  0  0
   -1.4130   11.2000   19.1670 C   0  0  0  0  0  0  0  0  0  0  0  0
   -1.7090   12.3520   19.9280 C   0  0  0  0  0  0  0  0  0  0  0  0
    0.3810   11.9140   22.6260 H   0  0  0  0  0  0  0  0  0  0  0  0
    0.5790    9.1590   18.2600 H   0  0  0  0  0  0  0  0  0  0  0  0
   -0.7840    8.2920   19.0900 H   0  0  0  0  0  0  0  0  0  0  0  0
   -2.4380   13.0840   19.5690 H   0  0  0  0  0  0  0  0  0  0  0  0
   -3.5560   12.9350   22.9200 C   0  0  1  0  0  0  0  0  0  0  0  0
   -4.6520   13.6970   23.6900 C   0  0  0  0  0  0  0  0  0  0  0  0
   -4.4960   15.1310   23.2050 C   0  0  1  0  0  0  0  0  0  0  0  0
   -2.9780   15.2670   23.0740 C   0  0  0  0  0  0  0  0  0  0  0  0
   -2.5410   13.9550   22.6220 N   0  0  0  0  0  0  0  0  0  0  0  0
   -1.3640   13.8460   21.9070 C   0  0  0  0  0  0  0  0  0  0  0  0
   -0.5450   14.7570   21.8120 O   0  0  0  0  0  0  0  0  0  0  0  0
   -3.9620   12.5670   21.9740 H   0  0  0  0  0  0  0  0  0  0  0  0
   -4.4770   13.6530   24.7730 H   0  0  0  0  0  0  0  0  0  0  0  0
   -5.6440   13.2780   23.4870 H   0  0  0  0  0  0  0  0  0  0  0  0
   -4.9300   15.8690   23.8860 H   0  0  0  0  0  0  0  0  0  0  0  0
   -2.5050   15.4510   24.0460 H   0  0  0  0  0  0  0  0  0  0  0  0
   -2.6820   16.0440   22.3620 H   0  0  0  0  0  0  0  0  0  0  0  0
   -3.0300   11.7700   23.7540 C   0  0  0  0  0  0  0  0  0  0  0  0
   -1.9420   11.6700   23.6560 H   0  0  0  0  0  0  0  0  0  0  0  0
   -3.4690   10.8160   23.4540 H   0  0  0  0  0  0  0  0  0  0  0  0
   -3.2650   11.9240   24.8140 H   0  0  0  0  0  0  0  0  0  0  0  0
   -5.1470   15.2600   21.9390 O   0  0  0  0  0  0  0  0  0  0  0  0
   -6.0960   15.0880   22.0800 H   0  0  0  0  0  0  0  0  0  0  0  0
    1.6550    7.3230   20.1260 C   0  0  0  0  0  0  0  0  0  0  0  0
    1.2980    6.2260   20.9260 C   0  0  0  0  0  0  0  0  0  0  0  0
    1.9590    5.0000   20.8110 C   0  0  0  0  0  0  0  0  0  0  0  0
    2.9960    4.8450   19.8960 C   0  0  0  0  0  0  0  0  0  0  0  0
    3.3900    5.9190   19.0930 C   0  0  0  0  0  0  0  0  0  0  0  0
    2.7090    7.1460   19.2210 C   0  0  0  0  0  0  0  0  0  0  0  0
    0.4920    6.2840   21.6510 H   0  0  0  0  0  0  0  0  0  0  0  0
    1.6570    4.1620   21.4340 H   0  0  0  0  0  0  0  0  0  0  0  0
    3.4900    3.8790   19.8190 H   0  0  0  0  0  0  0  0  0  0  0  0
    3.0320    7.9670   18.5880 H   0  0  0  0  0  0  0  0  0  0  0  0
    4.5060    5.7880   18.0650 C   0  0  2  0  0  0  0  0  0  0  0  0
    5.4500    5.6170   18.6000 H   0  0  0  0  0  0  0  0  0  0  0  0
    4.6710    7.1070   17.2970 C   0  0  0  0  0  0  0  0  0  0  0  0
    3.7110    7.4430   16.8910 H   0  0  0  0  0  0  0  0  0  0  0  0
    5.3680    6.9910   16.4610 H   0  0  0  0  0  0  0  0  0  0  0  0
    5.0550    7.9050   17.9440 H   0  0  0  0  0  0  0  0  0  0  0  0
    4.3100    4.6190   17.0750 C   0  0  0  0  0  0  0  0  0  0  0  0
    3.3480    4.7440   16.5580 H   0  0  0  0  0  0  0  0  0  0  0  0
    4.2360    3.6640   17.6090 H   0  0  0  0  0  0  0  0  0  0  0  0
    5.3830    4.5300   16.0350 C   0  0  0  0  0  0  0  0  0  0  0  0
    6.7660    4.5230   16.1180 C   0  0  0  0  0  0  0  0  0  0  0  0
    7.1940    4.3900   14.7760 C   0  0  0  0  0  0  0  0  0  0  0  0
    6.1790    4.3160   13.9150 N   0  0  0  0  0  0  0  0  0  0  0  0
    5.0940    4.4200   14.6990 N   0  0  0  0  0  0  0  0  0  0  0  0
    8.2060    4.3390   14.3960 H   0  0  0  0  0  0  0  0  0  0  0  0
    4.1820    4.3950   14.2540 H   0  0  0  0  0  0  0  0  0  0  0  0
    7.6250    4.6290   17.3180 C   0  0  0  0  0  0  0  0  0  0  0  0
    7.3100    5.4570   17.9610 H   0  0  0  0  0  0  0  0  0  0  0  0
    7.5750    3.7100   17.9120 H   0  0  0  0  0  0  0  0  0  0  0  0
    8.6670    4.7920   17.0260 H   0  0  0  0  0  0  0  0  0  0  0  0
   -2.1160   10.8480   17.8710 C   0  0  0  0  0  0  0  0  0  0  0  0
   -1.2070   10.5590   16.8940 F   0  0  0  0  0  0  0  0  0  0  0  0
   -2.8410   11.9000   17.3840 F   0  0  0  0  0  0  0  0  0  0  0  0
   -3.2340    9.4670   18.0130 Cl  0  0  0  0  0  0  0  0  0  0  0  0
  1  2  1  0  0  0  0
  1 20  1  0  0  0  0
  2 11  1  0  0  0  0
  3  7  1  0  0  0  0
  3  2  2  0  0  0  0
  4  3  1  0  0  0  0
  5  4  1  0  0  0  0
  5  6  1  0  0  0  0
  6  7  1  0  0  0  0
  7  8  2  0  0  0  0
  9  4  2  0  0  0  0
  9 10  1  0  0  0  0
 10  1  2  0  0  0  0
 12  5  1  0  0  0  0
 13  5  1  0  0  0  0
 14 10  1  0  0  0  0
 15 22  1  6  0  0  0
 15 16  1  0  0  0  0
 15 28  1  0  0  0  0
 16 23  1  0  0  0  0
 17 16  1  0  0  0  0
 17 25  1  1  0  0  0
 18 17  1  0  0  0  0
 18 26  1  0  0  0  0
 19 15  1  0  0  0  0
 19 18  1  0  0  0  0
 20 19  1  0  0  0  0
 21 20  2  0  0  0  0
 24 16  1  0  0  0  0
 27 18  1  0  0  0  0
 28 31  1  0  0  0  0
 29 28  1  0  0  0  0
 30 28  1  0  0  0  0
 32 33  1  0  0  0  0
 32 17  1  0  0  0  0
 34  6  1  0  0  0  0
 34 35  1  0  0  0  0
 35 40  1  0  0  0  0
 36 35  2  0  0  0  0
 36 41  1  0  0  0  0
 37 36  1  0  0  0  0
 38 39  1  0  0  0  0
 38 37  2  0  0  0  0
 39 34  2  0  0  0  0
 42 37  1  0  0  0  0
 43 39  1  0  0  0  0
 44 45  1  1  0  0  0
 44 38  1  0  0  0  0
 46 49  1  0  0  0  0
 46 44  1  0  0  0  0
 47 46  1  0  0  0  0
 48 46  1  0  0  0  0
 50 52  1  0  0  0  0
 50 44  1  0  0  0  0
 51 50  1  0  0  0  0
 53 54  2  0  0  0  0
 53 50  1  0  0  0  0
 54 60  1  0  0  0  0
 55 54  1  0  0  0  0
 56 57  1  0  0  0  0
 56 55  2  0  0  0  0
 57 53  1  0  0  0  0
 58 55  1  0  0  0  0
 59 57  1  0  0  0  0
 60 62  1  0  0  0  0
 60 61  1  0  0  0  0
 63 60  1  0  0  0  0
 64 67  1  0  0  0  0
 64  9  1  0  0  0  0
 65 64  1  0  0  0  0
 66 64  1  0  0  0  0
M  END
>  <MODEL>
5

>  <REMARK>
 VINA RESULT:    -9.012      4.272     10.469
 INTER + INTRA:         -12.242
 INTER:                 -10.830
 INTRA:                  -1.413
 UNBOUND:                 0.984
  Name = 
  10 active torsions:
  status: ('A' for Active; 'I' for Inactive)
    1  A    between atoms: C_1  and  C_2
    2  A    between atoms: C_4  and  O_38
    3  A    between atoms: C_7  and  C_9
    4  A    between atoms: N_14  and  C_17
    5  A    between atoms: C_21  and  C_23
    6  A    between atoms: C_23  and  C_24
    7  A    between atoms: C_23  and  C_25
    8  A    between atoms: C_25  and  C_26
    9  A    between atoms: C_27  and  C_31
   10  A    between atoms: C_32  and  C_34
                            x       y       z     vdW  Elec       q    Type
                         _______ _______ _______ _____ _____    ______ ____

>  <TORSDO>
F 10

$$$$
=
 OpenBabel07192307433D

 67 71  0  0  1  0  0  0  0  0999 V2000
    3.8200    4.5910   17.7620 C   0  0  0  0  0  0  0  0  0  0  0  0
    3.6210    5.9340   17.4420 C   0  0  0  0  0  0  0  0  0  0  0  0
    2.8720    6.6810   18.3280 C   0  0  0  0  0  0  0  0  0  0  0  0
    2.3570    6.1570   19.5160 C   0  0  0  0  0  0  0  0  0  0  0  0
    1.5980    7.2300   20.2310 C   0  0  0  0  0  0  0  0  0  0  0  0
    1.7020    8.3820   19.3470 N   0  0  0  0  0  0  0  0  0  0  0  0
    2.4430    8.0780   18.2010 C   0  0  0  0  0  0  0  0  0  0  0  0
    2.7150    8.7420   17.2200 O   0  0  0  0  0  0  0  0  0  0  0  0
    2.5700    4.8200   19.8760 C   0  0  0  0  0  0  0  0  0  0  0  0
    3.3120    4.0410   18.9620 C   0  0  0  0  0  0  0  0  0  0  0  0
    4.0180    6.3720   16.5310 H   0  0  0  0  0  0  0  0  0  0  0  0
    2.0720    7.4620   21.1910 H   0  0  0  0  0  0  0  0  0  0  0  0
    0.5460    6.9500   20.3510 H   0  0  0  0  0  0  0  0  0  0  0  0
    3.5140    2.9860   19.1650 H   0  0  0  0  0  0  0  0  0  0  0  0
    6.5350    5.5140   16.7140 C   0  0  1  0  0  0  0  0  0  0  0  0
    7.7490    5.5440   15.7660 C   0  0  0  0  0  0  0  0  0  0  0  0
    7.2890    4.7190   14.5730 C   0  0  1  0  0  0  0  0  0  0  0  0
    6.4700    3.6130   15.2380 C   0  0  0  0  0  0  0  0  0  0  0  0
    5.8270    4.2740   16.3640 N   0  0  0  0  0  0  0  0  0  0  0  0
    4.6430    3.7650   16.8590 C   0  0  0  0  0  0  0  0  0  0  0  0
    4.2040    2.6590   16.5530 O   0  0  0  0  0  0  0  0  0  0  0  0
    5.8780    6.3590   16.4930 H   0  0  0  0  0  0  0  0  0  0  0  0
    8.6240    5.0680   16.2280 H   0  0  0  0  0  0  0  0  0  0  0  0
    8.0200    6.5720   15.5010 H   0  0  0  0  0  0  0  0  0  0  0  0
    8.1160    4.3290   13.9700 H   0  0  0  0  0  0  0  0  0  0  0  0
    7.1130    2.8250   15.6470 H   0  0  0  0  0  0  0  0  0  0  0  0
    5.7240    3.1740   14.5670 H   0  0  0  0  0  0  0  0  0  0  0  0
    6.9930    5.5700   18.1690 C   0  0  0  0  0  0  0  0  0  0  0  0
    6.8030    4.6200   18.6820 H   0  0  0  0  0  0  0  0  0  0  0  0
    6.4770    6.3510   18.7340 H   0  0  0  0  0  0  0  0  0  0  0  0
    8.0680    5.7800   18.2220 H   0  0  0  0  0  0  0  0  0  0  0  0
    6.4780    5.5420   13.7320 O   0  0  0  0  0  0  0  0  0  0  0  0
    5.9990    6.1650   14.3080 H   0  0  0  0  0  0  0  0  0  0  0  0
    1.0920    9.6290   19.6580 C   0  0  0  0  0  0  0  0  0  0  0  0
    1.0360   10.6580   18.7040 C   0  0  0  0  0  0  0  0  0  0  0  0
    0.4130   11.8770   18.9900 C   0  0  0  0  0  0  0  0  0  0  0  0
   -0.1640   12.0960   20.2370 C   0  0  0  0  0  0  0  0  0  0  0  0
   -0.1140   11.1000   21.2180 C   0  0  0  0  0  0  0  0  0  0  0  0
    0.5150    9.8770   20.9100 C   0  0  0  0  0  0  0  0  0  0  0  0
    1.4610   10.5440   17.7120 H   0  0  0  0  0  0  0  0  0  0  0  0
    0.3730   12.6550   18.2310 H   0  0  0  0  0  0  0  0  0  0  0  0
   -0.6500   13.0490   20.4320 H   0  0  0  0  0  0  0  0  0  0  0  0
    0.5420    9.1190   21.6860 H   0  0  0  0  0  0  0  0  0  0  0  0
   -0.7490   11.2890   22.5890 C   0  0  2  0  0  0  0  0  0  0  0  0
   -0.1320   11.9950   23.1610 H   0  0  0  0  0  0  0  0  0  0  0  0
   -0.7310    9.9640   23.3630 C   0  0  0  0  0  0  0  0  0  0  0  0
   -0.1840    9.1950   22.8070 H   0  0  0  0  0  0  0  0  0  0  0  0
   -1.7480    9.5950   23.5350 H   0  0  0  0  0  0  0  0  0  0  0  0
   -0.2460   10.0750   24.3410 H   0  0  0  0  0  0  0  0  0  0  0  0
   -2.1860   11.8550   22.5390 C   0  0  0  0  0  0  0  0  0  0  0  0
   -2.8950   11.0590   22.8070 H   0  0  0  0  0  0  0  0  0  0  0  0
   -2.4520   12.1550   21.5180 H   0  0  0  0  0  0  0  0  0  0  0  0
   -2.4080   13.0030   23.4740 C   0  0  0  0  0  0  0  0  0  0  0  0
   -3.4770   13.3570   24.2800 C   0  0  0  0  0  0  0  0  0  0  0  0
   -3.0430   14.5340   24.9340 C   0  0  0  0  0  0  0  0  0  0  0  0
   -1.8100   14.8960   24.5820 N   0  0  0  0  0  0  0  0  0  0  0  0
   -1.4530   13.9630   23.6860 N   0  0  0  0  0  0  0  0  0  0  0  0
   -3.5780   15.1370   25.6570 H   0  0  0  0  0  0  0  0  0  0  0  0
   -0.5320   14.0370   23.2630 H   0  0  0  0  0  0  0  0  0  0  0  0
   -4.7840   12.6830   24.4400 C   0  0  0  0  0  0  0  0  0  0  0  0
   -4.6750   11.5940   24.4170 H   0  0  0  0  0  0  0  0  0  0  0  0
   -5.2430   12.9500   25.3970 H   0  0  0  0  0  0  0  0  0  0  0  0
   -5.4660   12.9810   23.6370 H   0  0  0  0  0  0  0  0  0  0  0  0
    1.9410    4.2610   21.1370 C   0  0  0  0  0  0  0  0  0  0  0  0
    0.5800    4.3500   21.0770 F   0  0  0  0  0  0  0  0  0  0  0  0
    2.2980    4.9790   22.2440 F   0  0  0  0  0  0  0  0  0  0  0  0
    2.3710    2.5610   21.4590 Cl  0  0  0  0  0  0  0  0  0  0  0  0
  1 10  1  0  0  0  0
  2  1  2  0  0  0  0
  2  3  1  0  0  0  0
  3  4  2  0  0  0  0
  4  9  1  0  0  0  0
  4  5  1  0  0  0  0
  5 13  1  0  0  0  0
  5 12  1  0  0  0  0
  6 34  1  0  0  0  0
  6  5  1  0  0  0  0
  7  3  1  0  0  0  0
  7  6  1  0  0  0  0
  8  7  2  0  0  0  0
  9 64  1  0  0  0  0
 10 14  1  0  0  0  0
 10  9  2  0  0  0  0
 11  2  1  0  0  0  0
 15 22  1  6  0  0  0
 15 28  1  0  0  0  0
 16 23  1  0  0  0  0
 16 15  1  0  0  0  0
 17 25  1  6  0  0  0
 17 18  1  0  0  0  0
 17 16  1  0  0  0  0
 18 26  1  0  0  0  0
 18 19  1  0  0  0  0
 19 15  1  0  0  0  0
 19 20  1  0  0  0  0
 20  1  1  0  0  0  0
 21 20  2  0  0  0  0
 24 16  1  0  0  0  0
 27 18  1  0  0  0  0
 28 31  1  0  0  0  0
 28 29  1  0  0  0  0
 28 30  1  0  0  0  0
 32 33  1  0  0  0  0
 32 17  1  0  0  0  0
 34 39  1  0  0  0  0
 35 36  1  0  0  0  0
 35 34  2  0  0  0  0
 36 37  2  0  0  0  0
 37 42  1  0  0  0  0
 37 38  1  0  0  0  0
 38 44  1  0  0  0  0
 39 38  2  0  0  0  0
 39 43  1  0  0  0  0
 40 35  1  0  0  0  0
 41 36  1  0  0  0  0
 44 45  1  1  0  0  0
 44 46  1  0  0  0  0
 46 48  1  0  0  0  0
 46 49  1  0  0  0  0
 47 46  1  0  0  0  0
 50 44  1  0  0  0  0
 50 51  1  0  0  0  0
 50 53  1  0  0  0  0
 52 50  1  0  0  0  0
 53 57  1  0  0  0  0
 53 54  2  0  0  0  0
 54 60  1  0  0  0  0
 54 55  1  0  0  0  0
 55 58  1  0  0  0  0
 56 55  2  0  0  0  0
 57 56  1  0  0  0  0
 59 57  1  0  0  0  0
 60 62  1  0  0  0  0
 61 60  1  0  0  0  0
 63 60  1  0  0  0  0
 64 67  1  0  0  0  0
 64 66  1  0  0  0  0
 65 64  1  0  0  0  0
M  END
>  <MODEL>
6

>  <REMARK>
 VINA RESULT:    -8.844      2.549      3.533
 INTER + INTRA:         -11.996
 INTER:                 -11.300
 INTRA:                  -0.696
 UNBOUND:                 0.984
  Name = 
  10 active torsions:
  status: ('A' for Active; 'I' for Inactive)
    1  A    between atoms: C_1  and  C_2
    2  A    between atoms: C_4  and  O_38
    3  A    between atoms: C_7  and  C_9
    4  A    between atoms: N_14  and  C_17
    5  A    between atoms: C_21  and  C_23
    6  A    between atoms: C_23  and  C_24
    7  A    between atoms: C_23  and  C_25
    8  A    between atoms: C_25  and  C_26
    9  A    between atoms: C_27  and  C_31
   10  A    between atoms: C_32  and  C_34
                            x       y       z     vdW  Elec       q    Type
                         _______ _______ _______ _____ _____    ______ ____

>  <TORSDO>
F 10

$$$$
=
 OpenBabel07192307433D

 67 71  0  0  1  0  0  0  0  0999 V2000
    0.1300   11.2030   19.3580 C   0  0  0  0  0  0  0  0  0  0  0  0
    0.8470   10.4120   18.4590 C   0  0  0  0  0  0  0  0  0  0  0  0
    1.3360    9.2140   18.9380 C   0  0  0  0  0  0  0  0  0  0  0  0
    1.1110    8.7680   20.2430 C   0  0  0  0  0  0  0  0  0  0  0  0
    1.7820    7.4440   20.4270 C   0  0  0  0  0  0  0  0  0  0  0  0
    2.4200    7.1930   19.1420 N   0  0  0  0  0  0  0  0  0  0  0  0
    2.1830    8.2380   18.2440 C   0  0  0  0  0  0  0  0  0  0  0  0
    2.5700    8.4240   17.1070 O   0  0  0  0  0  0  0  0  0  0  0  0
    0.3680    9.5300   21.1540 C   0  0  0  0  0  0  0  0  0  0  0  0
   -0.1140   10.7700   20.6820 C   0  0  0  0  0  0  0  0  0  0  0  0
    1.0280   10.7260   17.4360 H   0  0  0  0  0  0  0  0  0  0  0  0
    1.0410    6.6620   20.6260 H   0  0  0  0  0  0  0  0  0  0  0  0
    2.5420    7.4980   21.2130 H   0  0  0  0  0  0  0  0  0  0  0  0
   -0.6950   11.4270   21.3350 H   0  0  0  0  0  0  0  0  0  0  0  0
   -0.0560   13.6860   21.1260 C   0  0  1  0  0  0  0  0  0  0  0  0
   -0.5810   15.0610   21.5820 C   0  0  0  0  0  0  0  0  0  0  0  0
   -1.8260   15.2670   20.7320 C   0  0  1  0  0  0  0  0  0  0  0  0
   -1.4060   14.6650   19.3900 C   0  0  0  0  0  0  0  0  0  0  0  0
   -0.5610   13.5370   19.7540 N   0  0  0  0  0  0  0  0  0  0  0  0
   -0.4400   12.4760   18.8790 C   0  0  0  0  0  0  0  0  0  0  0  0
   -0.8250   12.5150   17.7130 O   0  0  0  0  0  0  0  0  0  0  0  0
   -0.5020   12.9020   21.7440 H   0  0  0  0  0  0  0  0  0  0  0  0
    0.1480   15.8540   21.3670 H   0  0  0  0  0  0  0  0  0  0  0  0
   -0.7870   15.0700   22.6580 H   0  0  0  0  0  0  0  0  0  0  0  0
   -2.1260   16.3160   20.6490 H   0  0  0  0  0  0  0  0  0  0  0  0
   -0.7880   15.3620   18.8110 H   0  0  0  0  0  0  0  0  0  0  0  0
   -2.2590   14.3350   18.7880 H   0  0  0  0  0  0  0  0  0  0  0  0
    1.4650   13.6340   21.2290 C   0  0  0  0  0  0  0  0  0  0  0  0
    1.8090   13.9660   22.2160 H   0  0  0  0  0  0  0  0  0  0  0  0
    1.9510   14.2730   20.4870 H   0  0  0  0  0  0  0  0  0  0  0  0
    1.8230   12.6100   21.0690 H   0  0  0  0  0  0  0  0  0  0  0  0
   -2.9080   14.5410   21.3190 O   0  0  0  0  0  0  0  0  0  0  0  0
   -3.1630   13.8400   20.6920 H   0  0  0  0  0  0  0  0  0  0  0  0
    3.1890    6.0210   18.8980 C   0  0  0  0  0  0  0  0  0  0  0  0
    3.0850    4.9050   19.7430 C   0  0  0  0  0  0  0  0  0  0  0  0
    3.8140    3.7380   19.4940 C   0  0  0  0  0  0  0  0  0  0  0  0
    4.6680    3.6630   18.3990 C   0  0  0  0  0  0  0  0  0  0  0  0
    4.8100    4.7610   17.5440 C   0  0  0  0  0  0  0  0  0  0  0  0
    4.0650    5.9260   17.8080 C   0  0  0  0  0  0  0  0  0  0  0  0
    2.4290    4.9000   20.6080 H   0  0  0  0  0  0  0  0  0  0  0  0
    3.7070    2.8820   20.1580 H   0  0  0  0  0  0  0  0  0  0  0  0
    5.2190    2.7420   18.2220 H   0  0  0  0  0  0  0  0  0  0  0  0
    4.1910    6.7660   17.1320 H   0  0  0  0  0  0  0  0  0  0  0  0
    5.7190    4.7160   16.3220 C   0  0  2  0  0  0  0  0  0  0  0  0
    5.4560    5.5580   15.6660 H   0  0  0  0  0  0  0  0  0  0  0  0
    5.4560    3.4360   15.5180 C   0  0  0  0  0  0  0  0  0  0  0  0
    6.3320    3.1660   14.9190 H   0  0  0  0  0  0  0  0  0  0  0  0
    4.6090    3.5660   14.8370 H   0  0  0  0  0  0  0  0  0  0  0  0
    5.2290    2.5870   16.1750 H   0  0  0  0  0  0  0  0  0  0  0  0
    7.2220    4.8340   16.6570 C   0  0  0  0  0  0  0  0  0  0  0  0
    7.8020    4.7840   15.7240 H   0  0  0  0  0  0  0  0  0  0  0  0
    7.5560    3.9780   17.2570 H   0  0  0  0  0  0  0  0  0  0  0  0
    7.5810    6.1080   17.3550 C   0  0  0  0  0  0  0  0  0  0  0  0
    7.9140    6.3910   18.6690 C   0  0  0  0  0  0  0  0  0  0  0  0
    8.1680    7.7820   18.6710 C   0  0  0  0  0  0  0  0  0  0  0  0
    8.0140    8.3370   17.4690 N   0  0  0  0  0  0  0  0  0  0  0  0
    7.6430    7.3070   16.6930 N   0  0  0  0  0  0  0  0  0  0  0  0
    8.4640    8.4100   19.5020 H   0  0  0  0  0  0  0  0  0  0  0  0
    7.4580    7.4930   15.7120 H   0  0  0  0  0  0  0  0  0  0  0  0
    7.9940    5.4720   19.8260 C   0  0  0  0  0  0  0  0  0  0  0  0
    8.8820    5.6730   20.4330 H   0  0  0  0  0  0  0  0  0  0  0  0
    7.1170    5.5860   20.4710 H   0  0  0  0  0  0  0  0  0  0  0  0
    8.0350    4.4330   19.4830 H   0  0  0  0  0  0  0  0  0  0  0  0
    0.1980    9.0530   22.5830 C   0  0  0  0  0  0  0  0  0  0  0  0
    1.4090    8.9530   23.2060 F   0  0  0  0  0  0  0  0  0  0  0  0
   -0.3390    7.7970   22.6400 F   0  0  0  0  0  0  0  0  0  0  0  0
   -0.8450   10.1090   23.5710 Cl  0  0  0  0  0  0  0  0  0  0  0  0
  1 10  1  0  0  0  0
  2  3  1  0  0  0  0
  2  1  2  0  0  0  0
  3  4  2  0  0  0  0
  4  5  1  0  0  0  0
  4  9  1  0  0  0  0
  5 12  1  0  0  0  0
  5 13  1  0  0  0  0
  6  5  1  0  0  0  0
  7  3  1  0  0  0  0
  7  6  1  0  0  0  0
  8  7  2  0  0  0  0
  9 64  1  0  0  0  0
 10  9  2  0  0  0  0
 10 14  1  0  0  0  0
 11  2  1  0  0  0  0
 15 28  1  0  0  0  0
 15 16  1  0  0  0  0
 15 22  1  1  0  0  0
 16 24  1  0  0  0  0
 17 25  1  6  0  0  0
 17 32  1  0  0  0  0
 17 16  1  0  0  0  0
 18 19  1  0  0  0  0
 18 17  1  0  0  0  0
 19 15  1  0  0  0  0
 20  1  1  0  0  0  0
 20 19  1  0  0  0  0
 21 20  2  0  0  0  0
 23 16  1  0  0  0  0
 26 18  1  0  0  0  0
 27 18  1  0  0  0  0
 28 29  1  0  0  0  0
 30 28  1  0  0  0  0
 31 28  1  0  0  0  0
 33 32  1  0  0  0  0
 34  6  1  0  0  0  0
 34 35  1  0  0  0  0
 35 40  1  0  0  0  0
 36 35  2  0  0  0  0
 36 41  1  0  0  0  0
 37 36  1  0  0  0  0
 38 39  1  0  0  0  0
 38 37  2  0  0  0  0
 39 34  2  0  0  0  0
 42 37  1  0  0  0  0
 43 39  1  0  0  0  0
 44 45  1  6  0  0  0
 44 50  1  0  0  0  0
 44 38  1  0  0  0  0
 46 49  1  0  0  0  0
 46 44  1  0  0  0  0
 47 46  1  0  0  0  0
 48 46  1  0  0  0  0
 50 52  1  0  0  0  0
 50 53  1  0  0  0  0
 51 50  1  0  0  0  0
 53 54  2  0  0  0  0
 54 55  1  0  0  0  0
 54 60  1  0  0  0  0
 55 58  1  0  0  0  0
 56 55  2  0  0  0  0
 57 53  1  0  0  0  0
 57 56  1  0  0  0  0
 59 57  1  0  0  0  0
 60 61  1  0  0  0  0
 60 62  1  0  0  0  0
 63 60  1  0  0  0  0
 64 66  1  0  0  0  0
 64 65  1  0  0  0  0
 64 67  1  0  0  0  0
M  END
>  <MODEL>
7

>  <REMARK>
 VINA RESULT:    -8.734      3.088      9.499
 INTER + INTRA:         -11.834
 INTER:                 -10.883
 INTRA:                  -0.951
 UNBOUND:                 0.984
  Name = 
  10 active torsions:
  status: ('A' for Active; 'I' for Inactive)
    1  A    between atoms: C_1  and  C_2
    2  A    between atoms: C_4  and  O_38
    3  A    between atoms: C_7  and  C_9
    4  A    between atoms: N_14  and  C_17
    5  A    between atoms: C_21  and  C_23
    6  A    between atoms: C_23  and  C_24
    7  A    between atoms: C_23  and  C_25
    8  A    between atoms: C_25  and  C_26
    9  A    between atoms: C_27  and  C_31
   10  A    between atoms: C_32  and  C_34
                            x       y       z     vdW  Elec       q    Type
                         _______ _______ _______ _____ _____    ______ ____

>  <TORSDO>
F 10

$$$$
=
 OpenBabel07192307433D

 67 71  0  0  1  0  0  0  0  0999 V2000
   -0.9550   12.5560   20.6330 C   0  0  0  0  0  0  0  0  0  0  0  0
    0.0210   11.7500   21.2210 C   0  0  0  0  0  0  0  0  0  0  0  0
    0.3260   10.5700   20.5750 C   0  0  0  0  0  0  0  0  0  0  0  0
   -0.2680   10.1880   19.3700 C   0  0  0  0  0  0  0  0  0  0  0  0
    0.2840    8.8620   18.9540 C   0  0  0  0  0  0  0  0  0  0  0  0
    1.2090    8.5160   20.0240 N   0  0  0  0  0  0  0  0  0  0  0  0
    1.2410    9.5090   21.0080 C   0  0  0  0  0  0  0  0  0  0  0  0
    1.8410    9.5760   22.0630 O   0  0  0  0  0  0  0  0  0  0  0  0
   -1.2280   10.9940   18.7440 C   0  0  0  0  0  0  0  0  0  0  0  0
   -1.5660   12.1920   19.4110 C   0  0  0  0  0  0  0  0  0  0  0  0
    0.5090   12.0260   22.1510 H   0  0  0  0  0  0  0  0  0  0  0  0
    0.8340    8.9530   18.0100 H   0  0  0  0  0  0  0  0  0  0  0  0
   -0.5100    8.1100   18.8940 H   0  0  0  0  0  0  0  0  0  0  0  0
   -2.3130   12.8710   18.9920 H   0  0  0  0  0  0  0  0  0  0  0  0
   -3.3660   12.8980   22.4760 C   0  0  1  0  0  0  0  0  0  0  0  0
   -4.4720   13.6610   23.2300 C   0  0  0  0  0  0  0  0  0  0  0  0
   -4.4310   15.0510   22.6120 C   0  0  1  0  0  0  0  0  0  0  0  0
   -2.9340   15.2650   22.3910 C   0  0  0  0  0  0  0  0  0  0  0  0
   -2.4340   13.9460   22.0350 N   0  0  0  0  0  0  0  0  0  0  0  0
   -1.2870   13.8430   21.2720 C   0  0  0  0  0  0  0  0  0  0  0  0
   -0.5340   14.7880   21.0550 O   0  0  0  0  0  0  0  0  0  0  0  0
   -3.7910   12.4210   21.5890 H   0  0  0  0  0  0  0  0  0  0  0  0
   -4.2450   13.7280   24.3030 H   0  0  0  0  0  0  0  0  0  0  0  0
   -5.4430   13.1660   23.1170 H   0  0  0  0  0  0  0  0  0  0  0  0
   -4.8800   15.8210   23.2470 H   0  0  0  0  0  0  0  0  0  0  0  0
   -2.4290   15.5660   23.3170 H   0  0  0  0  0  0  0  0  0  0  0  0
   -2.7210   15.9900   21.5980 H   0  0  0  0  0  0  0  0  0  0  0  0
   -2.7280   11.8490   23.3810 C   0  0  0  0  0  0  0  0  0  0  0  0
   -3.2410   10.8840   23.2950 H   0  0  0  0  0  0  0  0  0  0  0  0
   -2.7600   12.1390   24.4350 H   0  0  0  0  0  0  0  0  0  0  0  0
   -1.6750   11.7020   23.1110 H   0  0  0  0  0  0  0  0  0  0  0  0
   -5.1470   15.0230   21.3750 O   0  0  0  0  0  0  0  0  0  0  0  0
   -5.5520   14.1410   21.2920 H   0  0  0  0  0  0  0  0  0  0  0  0
    1.9460    7.2990   20.0200 C   0  0  0  0  0  0  0  0  0  0  0  0
    1.6630    6.2860   20.9490 C   0  0  0  0  0  0  0  0  0  0  0  0
    2.3620    5.0750   20.9350 C   0  0  0  0  0  0  0  0  0  0  0  0
    3.3630    4.8530   19.9950 C   0  0  0  0  0  0  0  0  0  0  0  0
    3.6840    5.8450   19.0640 C   0  0  0  0  0  0  0  0  0  0  0  0
    2.9660    7.0570   19.0910 C   0  0  0  0  0  0  0  0  0  0  0  0
    0.8880    6.3970   21.7010 H   0  0  0  0  0  0  0  0  0  0  0  0
    2.1170    4.3000   21.6590 H   0  0  0  0  0  0  0  0  0  0  0  0
    3.8870    3.8990   19.9990 H   0  0  0  0  0  0  0  0  0  0  0  0
    3.2320    7.8140   18.3590 H   0  0  0  0  0  0  0  0  0  0  0  0
    4.7590    5.6370   18.0040 C   0  0  2  0  0  0  0  0  0  0  0  0
    5.6610    5.2520   18.4990 H   0  0  0  0  0  0  0  0  0  0  0  0
    5.1440    6.9830   17.3760 C   0  0  0  0  0  0  0  0  0  0  0  0
    4.8350    7.8150   18.0170 H   0  0  0  0  0  0  0  0  0  0  0  0
    4.6630    7.1130   16.4010 H   0  0  0  0  0  0  0  0  0  0  0  0
    6.2280    7.0640   17.2280 H   0  0  0  0  0  0  0  0  0  0  0  0
    4.3620    4.6310   16.9010 C   0  0  0  0  0  0  0  0  0  0  0  0
    5.2710    4.2850   16.3880 H   0  0  0  0  0  0  0  0  0  0  0  0
    3.7550    5.1170   16.1290 H   0  0  0  0  0  0  0  0  0  0  0  0
    3.6420    3.4270   17.4230 C   0  0  0  0  0  0  0  0  0  0  0  0
    2.2980    3.1570   17.6230 C   0  0  0  0  0  0  0  0  0  0  0  0
    2.2800    1.8300   18.1120 C   0  0  0  0  0  0  0  0  0  0  0  0
    3.4990    1.2990   18.2130 N   0  0  0  0  0  0  0  0  0  0  0  0
    4.3070    2.2900   17.8050 N   0  0  0  0  0  0  0  0  0  0  0  0
    1.4240    1.2290   18.3950 H   0  0  0  0  0  0  0  0  0  0  0  0
    5.3070    2.1170   17.8020 H   0  0  0  0  0  0  0  0  0  0  0  0
    1.1300    4.0330   17.3890 C   0  0  0  0  0  0  0  0  0  0  0  0
    1.4410    5.0480   17.1220 H   0  0  0  0  0  0  0  0  0  0  0  0
    0.5150    3.6480   16.5700 H   0  0  0  0  0  0  0  0  0  0  0  0
    0.5080    4.0850   18.2890 H   0  0  0  0  0  0  0  0  0  0  0  0
   -1.9060   10.5230   17.4720 C   0  0  0  0  0  0  0  0  0  0  0  0
   -1.0860    9.6870   16.7700 F   0  0  0  0  0  0  0  0  0  0  0  0
   -2.1710   11.5610   16.6220 F   0  0  0  0  0  0  0  0  0  0  0  0
   -3.4490    9.6760   17.7540 Cl  0  0  0  0  0  0  0  0  0  0  0  0
  1  2  1  0  0  0  0
  1 20  1  0  0  0  0
  2 11  1  0  0  0  0
  3  7  1  0  0  0  0
  3  2  2  0  0  0  0
  4  3  1  0  0  0  0
  5  4  1  0  0  0  0
  5  6  1  0  0  0  0
  6  7  1  0  0  0  0
  7  8  2  0  0  0  0
  9  4  2  0  0  0  0
  9 10  1  0  0  0  0
 10  1  2  0  0  0  0
 12  5  1  0  0  0  0
 13  5  1  0  0  0  0
 14 10  1  0  0  0  0
 15 22  1  6  0  0  0
 15 16  1  0  0  0  0
 15 28  1  0  0  0  0
 16 23  1  0  0  0  0
 17 16  1  0  0  0  0
 17 25  1  1  0  0  0
 18 17  1  0  0  0  0
 18 26  1  0  0  0  0
 19 18  1  0  0  0  0
 19 15  1  0  0  0  0
 20 19  1  0  0  0  0
 21 20  2  0  0  0  0
 24 16  1  0  0  0  0
 27 18  1  0  0  0  0
 28 30  1  0  0  0  0
 29 28  1  0  0  0  0
 31 28  1  0  0  0  0
 32 17  1  0  0  0  0
 33 32  1  0  0  0  0
 34  6  1  0  0  0  0
 34 35  1  0  0  0  0
 35 40  1  0  0  0  0
 36 35  2  0  0  0  0
 36 41  1  0  0  0  0
 37 42  1  0  0  0  0
 37 36  1  0  0  0  0
 38 39  1  0  0  0  0
 38 37  2  0  0  0  0
 39 34  2  0  0  0  0
 43 39  1  0  0  0  0
 44 45  1  1  0  0  0
 44 38  1  0  0  0  0
 46 44  1  0  0  0  0
 46 47  1  0  0  0  0
 48 46  1  0  0  0  0
 49 46  1  0  0  0  0
 50 53  1  0  0  0  0
 50 44  1  0  0  0  0
 51 50  1  0  0  0  0
 52 50  1  0  0  0  0
 53 54  2  0  0  0  0
 53 57  1  0  0  0  0
 54 55  1  0  0  0  0
 55 56  2  0  0  0  0
 55 58  1  0  0  0  0
 57 56  1  0  0  0  0
 59 57  1  0  0  0  0
 60 54  1  0  0  0  0
 60 63  1  0  0  0  0
 61 60  1  0  0  0  0
 62 60  1  0  0  0  0
 64 67  1  0  0  0  0
 64  9  1  0  0  0  0
 65 64  1  0  0  0  0
 66 64  1  0  0  0  0
M  END
>  <MODEL>
8

>  <REMARK>
 VINA RESULT:    -8.710      4.196     10.087
 INTER + INTRA:         -11.799
 INTER:                 -11.191
 INTRA:                  -0.608
 UNBOUND:                 0.984
  Name = 
  10 active torsions:
  status: ('A' for Active; 'I' for Inactive)
    1  A    between atoms: C_1  and  C_2
    2  A    between atoms: C_4  and  O_38
    3  A    between atoms: C_7  and  C_9
    4  A    between atoms: N_14  and  C_17
    5  A    between atoms: C_21  and  C_23
    6  A    between atoms: C_23  and  C_24
    7  A    between atoms: C_23  and  C_25
    8  A    between atoms: C_25  and  C_26
    9  A    between atoms: C_27  and  C_31
   10  A    between atoms: C_32  and  C_34
                            x       y       z     vdW  Elec       q    Type
                         _______ _______ _______ _____ _____    ______ ____

>  <TORSDO>
F 10

$$$$
=
 OpenBabel07192307433D

 67 71  0  0  1  0  0  0  0  0999 V2000
    0.0950   10.0440   21.4900 C   0  0  0  0  0  0  0  0  0  0  0  0
    0.4670    8.6980   21.5090 C   0  0  0  0  0  0  0  0  0  0  0  0
    1.2320    8.2490   20.4520 C   0  0  0  0  0  0  0  0  0  0  0  0
    1.6620    9.0830   19.4180 C   0  0  0  0  0  0  0  0  0  0  0  0
    2.4620    8.2760   18.4440 C   0  0  0  0  0  0  0  0  0  0  0  0
    2.4240    6.9270   18.9920 N   0  0  0  0  0  0  0  0  0  0  0  0
    1.6870    6.8810   20.1790 C   0  0  0  0  0  0  0  0  0  0  0  0
    1.3900    5.9540   20.9060 O   0  0  0  0  0  0  0  0  0  0  0  0
    1.3300   10.4430   19.3920 C   0  0  0  0  0  0  0  0  0  0  0  0
    0.5240   10.9070   20.4550 C   0  0  0  0  0  0  0  0  0  0  0  0
    0.1570    8.0290   22.3050 H   0  0  0  0  0  0  0  0  0  0  0  0
    3.4980    8.6290   18.4110 H   0  0  0  0  0  0  0  0  0  0  0  0
    1.9930    8.2850   17.4530 H   0  0  0  0  0  0  0  0  0  0  0  0
    0.2140   11.9540   20.5030 H   0  0  0  0  0  0  0  0  0  0  0  0
   -1.6090   12.5670   21.2550 C   0  0  1  0  0  0  0  0  0  0  0  0
   -2.3860   13.8000   21.7550 C   0  0  0  0  0  0  0  0  0  0  0  0
   -1.9720   13.9130   23.2150 C   0  0  1  0  0  0  0  0  0  0  0  0
   -1.8860   12.4480   23.6440 C   0  0  0  0  0  0  0  0  0  0  0  0
   -1.3830   11.7600   22.4630 N   0  0  0  0  0  0  0  0  0  0  0  0
   -0.6940   10.5740   22.6170 C   0  0  0  0  0  0  0  0  0  0  0  0
   -0.6620    9.9430   23.6700 O   0  0  0  0  0  0  0  0  0  0  0  0
   -0.6370   12.8810   20.8650 H   0  0  0  0  0  0  0  0  0  0  0  0
   -3.4700   13.6360   21.6910 H   0  0  0  0  0  0  0  0  0  0  0  0
   -2.1380   14.6900   21.1660 H   0  0  0  0  0  0  0  0  0  0  0  0
   -2.6770   14.4900   23.8220 H   0  0  0  0  0  0  0  0  0  0  0  0
   -2.8770   12.0340   23.8650 H   0  0  0  0  0  0  0  0  0  0  0  0
   -1.2190   12.2940   24.4980 H   0  0  0  0  0  0  0  0  0  0  0  0
   -2.4000   11.8400   20.1710 C   0  0  0  0  0  0  0  0  0  0  0  0
   -1.9250   10.8900   19.9010 H   0  0  0  0  0  0  0  0  0  0  0  0
   -2.4830   12.4310   19.2550 H   0  0  0  0  0  0  0  0  0  0  0  0
   -3.4170   11.6270   20.5200 H   0  0  0  0  0  0  0  0  0  0  0  0
   -0.6980   14.5570   23.2820 O   0  0  0  0  0  0  0  0  0  0  0  0
   -0.8100   15.4610   22.9370 H   0  0  0  0  0  0  0  0  0  0  0  0
    3.0640    5.8330   18.3470 C   0  0  0  0  0  0  0  0  0  0  0  0
    2.7220    4.5100   18.6690 C   0  0  0  0  0  0  0  0  0  0  0  0
    3.3230    3.4280   18.0200 C   0  0  0  0  0  0  0  0  0  0  0  0
    4.2840    3.6440   17.0370 C   0  0  0  0  0  0  0  0  0  0  0  0
    4.6630    4.9470   16.7000 C   0  0  0  0  0  0  0  0  0  0  0  0
    4.0430    6.0250   17.3630 C   0  0  0  0  0  0  0  0  0  0  0  0
    1.9740    4.2780   19.4200 H   0  0  0  0  0  0  0  0  0  0  0  0
    3.0330    2.4120   18.2790 H   0  0  0  0  0  0  0  0  0  0  0  0
    4.7330    2.7860   16.5410 H   0  0  0  0  0  0  0  0  0  0  0  0
    4.3520    7.0280   17.0860 H   0  0  0  0  0  0  0  0  0  0  0  0
    5.6960    5.2310   15.6180 C   0  0  2  0  0  0  0  0  0  0  0  0
    5.6730    6.3060   15.3910 H   0  0  0  0  0  0  0  0  0  0  0  0
    5.3140    4.5020   14.3230 C   0  0  0  0  0  0  0  0  0  0  0  0
    6.1480    4.5080   13.6120 H   0  0  0  0  0  0  0  0  0  0  0  0
    4.4560    4.9810   13.8400 H   0  0  0  0  0  0  0  0  0  0  0  0
    5.0480    3.4540   14.5130 H   0  0  0  0  0  0  0  0  0  0  0  0
    7.1420    4.8690   16.0240 C   0  0  0  0  0  0  0  0  0  0  0  0
    7.8400    5.3300   15.3120 H   0  0  0  0  0  0  0  0  0  0  0  0
    7.3110    3.7880   15.9440 H   0  0  0  0  0  0  0  0  0  0  0  0
    7.5110    5.3350   17.3980 C   0  0  0  0  0  0  0  0  0  0  0  0
    7.6740    6.5970   17.9430 C   0  0  0  0  0  0  0  0  0  0  0  0
    7.9970    6.3510   19.2980 C   0  0  0  0  0  0  0  0  0  0  0  0
    8.0350    5.0520   19.5920 N   0  0  0  0  0  0  0  0  0  0  0  0
    7.7520    4.4570   18.4230 N   0  0  0  0  0  0  0  0  0  0  0  0
    8.2020    7.0700   20.0810 H   0  0  0  0  0  0  0  0  0  0  0  0
    7.7300    3.4420   18.3980 H   0  0  0  0  0  0  0  0  0  0  0  0
    7.5470    7.9170   17.2860 C   0  0  0  0  0  0  0  0  0  0  0  0
    6.8520    8.5660   17.8280 H   0  0  0  0  0  0  0  0  0  0  0  0
    8.5160    8.4250   17.2490 H   0  0  0  0  0  0  0  0  0  0  0  0
    7.1840    7.7970   16.2600 H   0  0  0  0  0  0  0  0  0  0  0  0
    1.7530   11.3090   18.2220 C   0  0  0  0  0  0  0  0  0  0  0  0
    1.5240   10.6670   17.0400 F   0  0  0  0  0  0  0  0  0  0  0  0
    3.0970   11.5620   18.2370 F   0  0  0  0  0  0  0  0  0  0  0  0
    0.9280   12.8880   18.1630 Cl  0  0  0  0  0  0  0  0  0  0  0  0
  1  2  1  0  0  0  0
  1 20  1  0  0  0  0
  2 11  1  0  0  0  0
  3  2  2  0  0  0  0
  4  3  1  0  0  0  0
  5  6  1  0  0  0  0
  5  4  1  0  0  0  0
  6  7  1  0  0  0  0
  7  3  1  0  0  0  0
  7  8  2  0  0  0  0
  9  4  2  0  0  0  0
  9 10  1  0  0  0  0
 10 14  1  0  0  0  0
 10  1  2  0  0  0  0
 12  5  1  0  0  0  0
 13  5  1  0  0  0  0
 15 22  1  6  0  0  0
 15 16  1  0  0  0  0
 15 19  1  0  0  0  0
 16 17  1  0  0  0  0
 17 32  1  0  0  0  0
 17 18  1  0  0  0  0
 17 25  1  1  0  0  0
 18 26  1  0  0  0  0
 18 27  1  0  0  0  0
 19 20  1  0  0  0  0
 19 18  1  0  0  0  0
 20 21  2  0  0  0  0
 23 16  1  0  0  0  0
 24 16  1  0  0  0  0
 28 31  1  0  0  0  0
 28 15  1  0  0  0  0
 29 28  1  0  0  0  0
 30 28  1  0  0  0  0
 33 32  1  0  0  0  0
 34 35  1  0  0  0  0
 34  6  1  0  0  0  0
 35 40  1  0  0  0  0
 36 41  1  0  0  0  0
 36 35  2  0  0  0  0
 37 36  1  0  0  0  0
 38 37  2  0  0  0  0
 38 39  1  0  0  0  0
 39 34  2  0  0  0  0
 42 37  1  0  0  0  0
 43 39  1  0  0  0  0
 44 45  1  6  0  0  0
 44 50  1  0  0  0  0
 44 38  1  0  0  0  0
 46 49  1  0  0  0  0
 46 44  1  0  0  0  0
 47 46  1  0  0  0  0
 48 46  1  0  0  0  0
 50 53  1  0  0  0  0
 51 50  1  0  0  0  0
 52 50  1  0  0  0  0
 53 54  2  0  0  0  0
 53 57  1  0  0  0  0
 54 55  1  0  0  0  0
 55 56  2  0  0  0  0
 55 58  1  0  0  0  0
 57 56  1  0  0  0  0
 59 57  1  0  0  0  0
 60 61  1  0  0  0  0
 60 54  1  0  0  0  0
 62 60  1  0  0  0  0
 63 60  1  0  0  0  0
 64 66  1  0  0  0  0
 64  9  1  0  0  0  0
 65 64  1  0  0  0  0
 67 64  1  0  0  0  0
M  END
>  <MODEL>
9

>  <REMARK>
 VINA RESULT:    -8.696      3.954      9.982
 INTER + INTRA:         -11.779
 INTER:                 -11.354
 INTRA:                  -0.425
 UNBOUND:                 0.984
  Name = 
  10 active torsions:
  status: ('A' for Active; 'I' for Inactive)
    1  A    between atoms: C_1  and  C_2
    2  A    between atoms: C_4  and  O_38
    3  A    between atoms: C_7  and  C_9
    4  A    between atoms: N_14  and  C_17
    5  A    between atoms: C_21  and  C_23
    6  A    between atoms: C_23  and  C_24
    7  A    between atoms: C_23  and  C_25
    8  A    between atoms: C_25  and  C_26
    9  A    between atoms: C_27  and  C_31
   10  A    between atoms: C_32  and  C_34
                            x       y       z     vdW  Elec       q    Type
                         _______ _______ _______ _____ _____    ______ ____

>  <TORSDO>
F 10

$$$$
=
 OpenBabel07192307433D

 67 71  0  0  1  0  0  0  0  0999 V2000
   -1.4150   13.2280   20.8920 C   0  0  0  0  0  0  0  0  0  0  0  0
   -1.4440   11.8700   21.2140 C   0  0  0  0  0  0  0  0  0  0  0  0
   -0.4030   11.0960   20.7440 C   0  0  0  0  0  0  0  0  0  0  0  0
    0.6630   11.6220   20.0110 C   0  0  0  0  0  0  0  0  0  0  0  0
    1.6050   10.5140   19.6600 C   0  0  0  0  0  0  0  0  0  0  0  0
    0.9770    9.3280   20.2240 N   0  0  0  0  0  0  0  0  0  0  0  0
   -0.2270    9.6450   20.8620 C   0  0  0  0  0  0  0  0  0  0  0  0
   -1.0550    8.9440   21.4090 O   0  0  0  0  0  0  0  0  0  0  0  0
    0.7320   12.9870   19.7020 C   0  0  0  0  0  0  0  0  0  0  0  0
   -0.3420   13.7830   20.1560 C   0  0  0  0  0  0  0  0  0  0  0  0
   -2.2540   11.4350   21.7920 H   0  0  0  0  0  0  0  0  0  0  0  0
    2.5800   10.6720   20.1340 H   0  0  0  0  0  0  0  0  0  0  0  0
    1.6910   10.4050   18.5730 H   0  0  0  0  0  0  0  0  0  0  0  0
   -0.3680   14.8560   19.9470 H   0  0  0  0  0  0  0  0  0  0  0  0
   -1.2880   14.5470   23.6430 C   0  0  1  0  0  0  0  0  0  0  0  0
   -1.8380   15.2260   24.9120 C   0  0  0  0  0  0  0  0  0  0  0  0
   -3.3410   15.0170   24.8050 C   0  0  1  0  0  0  0  0  0  0  0  0
   -3.5860   15.1790   23.3050 C   0  0  0  0  0  0  0  0  0  0  0  0
   -2.4020   14.6030   22.6850 N   0  0  0  0  0  0  0  0  0  0  0  0
   -2.4900   14.0980   21.4030 C   0  0  0  0  0  0  0  0  0  0  0  0
   -3.4490   14.2990   20.6630 O   0  0  0  0  0  0  0  0  0  0  0  0
   -1.0690   13.4970   23.8550 H   0  0  0  0  0  0  0  0  0  0  0  0
   -1.6140   16.3020   24.9130 H   0  0  0  0  0  0  0  0  0  0  0  0
   -1.4040   14.7860   25.8170 H   0  0  0  0  0  0  0  0  0  0  0  0
   -3.9210   15.7230   25.4070 H   0  0  0  0  0  0  0  0  0  0  0  0
   -3.6240   16.2360   23.0140 H   0  0  0  0  0  0  0  0  0  0  0  0
   -4.4930   14.6670   22.9650 H   0  0  0  0  0  0  0  0  0  0  0  0
   -0.0280   15.2590   23.1600 C   0  0  0  0  0  0  0  0  0  0  0  0
    0.8730   14.8190   23.6040 H   0  0  0  0  0  0  0  0  0  0  0  0
   -0.0290   16.3210   23.4180 H   0  0  0  0  0  0  0  0  0  0  0  0
    0.0580   15.1840   22.0690 H   0  0  0  0  0  0  0  0  0  0  0  0
   -3.6530   13.6950   25.2490 O   0  0  0  0  0  0  0  0  0  0  0  0
   -4.3850   13.7670   25.8880 H   0  0  0  0  0  0  0  0  0  0  0  0
    1.5550    8.0340   20.0960 C   0  0  0  0  0  0  0  0  0  0  0  0
    1.4430    7.0920   21.1310 C   0  0  0  0  0  0  0  0  0  0  0  0
    1.9820    5.8090   21.0030 C   0  0  0  0  0  0  0  0  0  0  0  0
    2.6490    5.4400   19.8390 C   0  0  0  0  0  0  0  0  0  0  0  0
    2.7940    6.3560   18.7930 C   0  0  0  0  0  0  0  0  0  0  0  0
    2.2410    7.6440   18.9380 C   0  0  0  0  0  0  0  0  0  0  0  0
    0.9280    7.3190   22.0590 H   0  0  0  0  0  0  0  0  0  0  0  0
    1.8730    5.0930   21.8150 H   0  0  0  0  0  0  0  0  0  0  0  0
    3.0530    4.4330   19.7600 H   0  0  0  0  0  0  0  0  0  0  0  0
    2.3660    8.3390   18.1140 H   0  0  0  0  0  0  0  0  0  0  0  0
    3.5000    5.9890   17.4940 C   0  0  2  0  0  0  0  0  0  0  0  0
    2.8830    6.3400   16.6550 H   0  0  0  0  0  0  0  0  0  0  0  0
    3.5940    4.4640   17.3600 C   0  0  0  0  0  0  0  0  0  0  0  0
    4.5950    4.1100   17.6300 H   0  0  0  0  0  0  0  0  0  0  0  0
    3.3910    4.1460   16.3320 H   0  0  0  0  0  0  0  0  0  0  0  0
    2.8760    3.9560   18.0150 H   0  0  0  0  0  0  0  0  0  0  0  0
    4.9010    6.6230   17.3430 C   0  0  0  0  0  0  0  0  0  0  0  0
    5.3980    6.6310   18.3230 H   0  0  0  0  0  0  0  0  0  0  0  0
    4.8230    7.6750   17.0440 H   0  0  0  0  0  0  0  0  0  0  0  0
    5.7860    5.8920   16.3830 C   0  0  0  0  0  0  0  0  0  0  0  0
    6.9130    5.1070   16.5640 C   0  0  0  0  0  0  0  0  0  0  0  0
    7.2590    4.6900   15.2570 C   0  0  0  0  0  0  0  0  0  0  0  0
    6.4290    5.1620   14.3280 N   0  0  0  0  0  0  0  0  0  0  0  0
    5.5560    5.8990   15.0320 N   0  0  0  0  0  0  0  0  0  0  0  0
    8.0820    4.0570   14.9500 H   0  0  0  0  0  0  0  0  0  0  0  0
    4.8160    6.3740   14.5230 H   0  0  0  0  0  0  0  0  0  0  0  0
    7.6160    4.7670   17.8210 C   0  0  0  0  0  0  0  0  0  0  0  0
    7.4680    3.7150   18.0870 H   0  0  0  0  0  0  0  0  0  0  0  0
    8.6930    4.9350   17.7190 H   0  0  0  0  0  0  0  0  0  0  0  0
    7.2480    5.3890   18.6420 H   0  0  0  0  0  0  0  0  0  0  0  0
    1.8660   13.5180   18.8470 C   0  0  0  0  0  0  0  0  0  0  0  0
    1.9130   12.8650   17.6500 F   0  0  0  0  0  0  0  0  0  0  0  0
    3.0860   13.2950   19.4240 F   0  0  0  0  0  0  0  0  0  0  0  0
    1.7580   15.2670   18.5190 Cl  0  0  0  0  0  0  0  0  0  0  0  0
  1  2  1  0  0  0  0
  1 20  1  0  0  0  0
  2 11  1  0  0  0  0
  3  7  1  0  0  0  0
  3  2  2  0  0  0  0
  4  3  1  0  0  0  0
  5  4  1  0  0  0  0
  5 12  1  0  0  0  0
  5  6  1  0  0  0  0
  6  7  1  0  0  0  0
  7  8  2  0  0  0  0
  9  4  2  0  0  0  0
  9 10  1  0  0  0  0
 10  1  2  0  0  0  0
 13  5  1  0  0  0  0
 14 10  1  0  0  0  0
 15 22  1  1  0  0  0
 15 16  1  0  0  0  0
 16 23  1  0  0  0  0
 16 24  1  0  0  0  0
 17 16  1  0  0  0  0
 17 32  1  0  0  0  0
 17 25  1  1  0  0  0
 18 17  1  0  0  0  0
 19 18  1  0  0  0  0
 19 15  1  0  0  0  0
 20 19  1  0  0  0  0
 21 20  2  0  0  0  0
 26 18  1  0  0  0  0
 27 18  1  0  0  0  0
 28 30  1  0  0  0  0
 28 29  1  0  0  0  0
 28 15  1  0  0  0  0
 31 28  1  0  0  0  0
 32 33  1  0  0  0  0
 34  6  1  0  0  0  0
 34 35  1  0  0  0  0
 35 40  1  0  0  0  0
 36 35  2  0  0  0  0
 36 41  1  0  0  0  0
 37 36  1  0  0  0  0
 38 39  1  0  0  0  0
 38 37  2  0  0  0  0
 39 34  2  0  0  0  0
 42 37  1  0  0  0  0
 43 39  1  0  0  0  0
 44 45  1  6  0  0  0
 44 38  1  0  0  0  0
 46 44  1  0  0  0  0
 46 47  1  0  0  0  0
 46 49  1  0  0  0  0
 48 46  1  0  0  0  0
 50 44  1  0  0  0  0
 50 51  1  0  0  0  0
 52 50  1  0  0  0  0
 53 54  2  0  0  0  0
 53 50  1  0  0  0  0
 54 60  1  0  0  0  0
 55 54  1  0  0  0  0
 56 57  1  0  0  0  0
 56 55  2  0  0  0  0
 57 53  1  0  0  0  0
 58 55  1  0  0  0  0
 59 57  1  0  0  0  0
 60 61  1  0  0  0  0
 60 63  1  0  0  0  0
 62 60  1  0  0  0  0
 64 66  1  0  0  0  0
 64  9  1  0  0  0  0
 65 64  1  0  0  0  0
 67 64  1  0  0  0  0
M  END
>  <MODEL>
10

>  <REMARK>
 VINA RESULT:    -8.671      4.649     10.671
 INTER + INTRA:         -11.742
 INTER:                 -10.634
 INTRA:                  -1.108
 UNBOUND:                 0.984
  Name = 
  10 active torsions:
  status: ('A' for Active; 'I' for Inactive)
    1  A    between atoms: C_1  and  C_2
    2  A    between atoms: C_4  and  O_38
    3  A    between atoms: C_7  and  C_9
    4  A    between atoms: N_14  and  C_17
    5  A    between atoms: C_21  and  C_23
    6  A    between atoms: C_23  and  C_24
    7  A    between atoms: C_23  and  C_25
    8  A    between atoms: C_25  and  C_26
    9  A    between atoms: C_27  and  C_31
   10  A    between atoms: C_32  and  C_34
                            x       y       z     vdW  Elec       q    Type
                         _______ _______ _______ _____ _____    ______ ____

>  <TORSDO>
F 10

$$$$
=
 OpenBabel07192307433D

 67 71  0  0  1  0  0  0  0  0999 V2000
   -1.5540   13.1730   20.6740 C   0  0  0  0  0  0  0  0  0  0  0  0
   -1.5220   11.8160   20.9970 C   0  0  0  0  0  0  0  0  0  0  0  0
   -0.4490   11.0890   20.5240 C   0  0  0  0  0  0  0  0  0  0  0  0
    0.5910   11.6610   19.7890 C   0  0  0  0  0  0  0  0  0  0  0  0
    1.5800   10.5960   19.4360 C   0  0  0  0  0  0  0  0  0  0  0  0
    1.0060    9.3830   20.0010 N   0  0  0  0  0  0  0  0  0  0  0  0
   -0.2090    9.6470   20.6420 C   0  0  0  0  0  0  0  0  0  0  0  0
   -1.0040    8.9100   21.1910 O   0  0  0  0  0  0  0  0  0  0  0  0
    0.5990   13.0270   19.4800 C   0  0  0  0  0  0  0  0  0  0  0  0
   -0.5090   13.7750   19.9350 C   0  0  0  0  0  0  0  0  0  0  0  0
   -2.3110   11.3450   21.5760 H   0  0  0  0  0  0  0  0  0  0  0  0
    2.5480   10.7970   19.9080 H   0  0  0  0  0  0  0  0  0  0  0  0
    1.6680   10.4900   18.3490 H   0  0  0  0  0  0  0  0  0  0  0  0
   -0.5820   14.8460   19.7270 H   0  0  0  0  0  0  0  0  0  0  0  0
   -1.5570   14.3510   23.4920 C   0  0  1  0  0  0  0  0  0  0  0  0
   -2.1680   14.9520   24.7720 C   0  0  0  0  0  0  0  0  0  0  0  0
   -3.6610   14.7200   24.5970 C   0  0  1  0  0  0  0  0  0  0  0  0
   -3.8540   14.9550   23.0990 C   0  0  0  0  0  0  0  0  0  0  0  0
   -2.6360   14.4340   22.4970 N   0  0  0  0  0  0  0  0  0  0  0  0
   -2.6660   13.9950   21.1880 C   0  0  0  0  0  0  0  0  0  0  0  0
   -3.6010   14.2160   20.4230 O   0  0  0  0  0  0  0  0  0  0  0  0
   -1.3250   13.2960   23.6590 H   0  0  0  0  0  0  0  0  0  0  0  0
   -1.9670   16.0300   24.8370 H   0  0  0  0  0  0  0  0  0  0  0  0
   -1.7590   14.4740   25.6690 H   0  0  0  0  0  0  0  0  0  0  0  0
   -4.2780   15.3830   25.2130 H   0  0  0  0  0  0  0  0  0  0  0  0
   -3.9030   16.0240   22.8620 H   0  0  0  0  0  0  0  0  0  0  0  0
   -4.7360   14.4440   22.6990 H   0  0  0  0  0  0  0  0  0  0  0  0
   -0.2950   15.1100   23.0940 C   0  0  0  0  0  0  0  0  0  0  0  0
   -0.3600   16.1670   23.3800 H   0  0  0  0  0  0  0  0  0  0  0  0
   -0.1160   15.0790   22.0170 H   0  0  0  0  0  0  0  0  0  0  0  0
    0.5820   14.6760   23.5880 H   0  0  0  0  0  0  0  0  0  0  0  0
   -3.9610   13.3710   24.9610 O   0  0  0  0  0  0  0  0  0  0  0  0
   -3.2810   12.8020   24.5570 H   0  0  0  0  0  0  0  0  0  0  0  0
    1.6410    8.1160   19.8720 C   0  0  0  0  0  0  0  0  0  0  0  0
    1.6020    7.1840   20.9200 C   0  0  0  0  0  0  0  0  0  0  0  0
    2.1970    5.9250   20.7920 C   0  0  0  0  0  0  0  0  0  0  0  0
    2.8490    5.5730   19.6150 C   0  0  0  0  0  0  0  0  0  0  0  0
    2.9220    6.4810   18.5540 C   0  0  0  0  0  0  0  0  0  0  0  0
    2.3130    7.7430   18.7000 C   0  0  0  0  0  0  0  0  0  0  0  0
    1.1020    7.3980   21.8600 H   0  0  0  0  0  0  0  0  0  0  0  0
    2.1440    5.2150   21.6150 H   0  0  0  0  0  0  0  0  0  0  0  0
    3.2970    4.5850   19.5360 H   0  0  0  0  0  0  0  0  0  0  0  0
    2.3820    8.4330   17.8650 H   0  0  0  0  0  0  0  0  0  0  0  0
    3.6070    6.1310   17.2400 C   0  0  2  0  0  0  0  0  0  0  0  0
    2.9620    6.4620   16.4150 H   0  0  0  0  0  0  0  0  0  0  0  0
    3.7420    4.6080   17.1070 C   0  0  0  0  0  0  0  0  0  0  0  0
    4.0270    4.3300   16.0860 H   0  0  0  0  0  0  0  0  0  0  0  0
    2.7960    4.1080   17.3410 H   0  0  0  0  0  0  0  0  0  0  0  0
    4.5070    4.2100   17.7850 H   0  0  0  0  0  0  0  0  0  0  0  0
    4.9860    6.8030   17.0560 C   0  0  0  0  0  0  0  0  0  0  0  0
    5.0180    7.7250   17.6540 H   0  0  0  0  0  0  0  0  0  0  0  0
    5.1290    7.1220   16.0160 H   0  0  0  0  0  0  0  0  0  0  0  0
    6.1330    5.9390   17.4790 C   0  0  0  0  0  0  0  0  0  0  0  0
    6.9660    5.0840   16.7770 C   0  0  0  0  0  0  0  0  0  0  0  0
    7.8620    4.5930   17.7550 C   0  0  0  0  0  0  0  0  0  0  0  0
    7.6250    5.0890   18.9690 N   0  0  0  0  0  0  0  0  0  0  0  0
    6.5640    5.8890   18.7790 N   0  0  0  0  0  0  0  0  0  0  0  0
    8.6800    3.8950   17.6260 H   0  0  0  0  0  0  0  0  0  0  0  0
    6.1900    6.3820   19.5840 H   0  0  0  0  0  0  0  0  0  0  0  0
    6.9480    4.7430   15.3370 C   0  0  0  0  0  0  0  0  0  0  0  0
    6.0600    5.1510   14.8430 H   0  0  0  0  0  0  0  0  0  0  0  0
    7.8280    5.1540   14.8310 H   0  0  0  0  0  0  0  0  0  0  0  0
    6.9520    3.6570   15.2040 H   0  0  0  0  0  0  0  0  0  0  0  0
    1.7060   13.6080   18.6220 C   0  0  0  0  0  0  0  0  0  0  0  0
    1.3460   14.8310   18.1330 F   0  0  0  0  0  0  0  0  0  0  0  0
    1.9510   12.8390   17.5190 F   0  0  0  0  0  0  0  0  0  0  0  0
    3.2570   13.7920   19.4820 Cl  0  0  0  0  0  0  0  0  0  0  0  0
  1  2  1  0  0  0  0
  1 20  1  0  0  0  0
  2 11  1  0  0  0  0
  3  7  1  0  0  0  0
  3  2  2  0  0  0  0
  4  3  1  0  0  0  0
  5  4  1  0  0  0  0
  5 12  1  0  0  0  0
  5  6  1  0  0  0  0
  6  7  1  0  0  0  0
  7  8  2  0  0  0  0
  9  4  2  0  0  0  0
  9 10  1  0  0  0  0
 10  1  2  0  0  0  0
 13  5  1  0  0  0  0
 14 10  1  0  0  0  0
 15 22  1  1  0  0  0
 15 16  1  0  0  0  0
 16 23  1  0  0  0  0
 16 24  1  0  0  0  0
 17 16  1  0  0  0  0
 17 32  1  0  0  0  0
 17 25  1  1  0  0  0
 18 17  1  0  0  0  0
 19 18  1  0  0  0  0
 19 15  1  0  0  0  0
 20 19  1  0  0  0  0
 21 20  2  0  0  0  0
 26 18  1  0  0  0  0
 27 18  1  0  0  0  0
 28 29  1  0  0  0  0
 28 15  1  0  0  0  0
 28 31  1  0  0  0  0
 30 28  1  0  0  0  0
 33 32  1  0  0  0  0
 34  6  1  0  0  0  0
 34 35  1  0  0  0  0
 35 40  1  0  0  0  0
 36 35  2  0  0  0  0
 36 41  1  0  0  0  0
 37 36  1  0  0  0  0
 38 39  1  0  0  0  0
 38 37  2  0  0  0  0
 39 34  2  0  0  0  0
 42 37  1  0  0  0  0
 43 39  1  0  0  0  0
 44 45  1  6  0  0  0
 44 38  1  0  0  0  0
 46 44  1  0  0  0  0
 46 48  1  0  0  0  0
 46 49  1  0  0  0  0
 47 46  1  0  0  0  0
 50 44  1  0  0  0  0
 50 53  1  0  0  0  0
 50 51  1  0  0  0  0
 52 50  1  0  0  0  0
 53 57  1  0  0  0  0
 54 53  2  0  0  0  0
 54 55  1  0  0  0  0
 55 56  2  0  0  0  0
 57 56  1  0  0  0  0
 57 59  1  0  0  0  0
 58 55  1  0  0  0  0
 60 54  1  0  0  0  0
 61 60  1  0  0  0  0
 62 60  1  0  0  0  0
 63 60  1  0  0  0  0
 64  9  1  0  0  0  0
 64 67  1  0  0  0  0
 65 64  1  0  0  0  0
 66 64  1  0  0  0  0
M  END
>  <MODEL>
11

>  <REMARK>
 VINA RESULT:    -8.567      4.613     10.734
 INTER + INTRA:         -11.589
 INTER:                 -10.420
 INTRA:                  -1.169
 UNBOUND:                 0.984
  Name = 
  10 active torsions:
  status: ('A' for Active; 'I' for Inactive)
    1  A    between atoms: C_1  and  C_2
    2  A    between atoms: C_4  and  O_38
    3  A    between atoms: C_7  and  C_9
    4  A    between atoms: N_14  and  C_17
    5  A    between atoms: C_21  and  C_23
    6  A    between atoms: C_23  and  C_24
    7  A    between atoms: C_23  and  C_25
    8  A    between atoms: C_25  and  C_26
    9  A    between atoms: C_27  and  C_31
   10  A    between atoms: C_32  and  C_34
                            x       y       z     vdW  Elec       q    Type
                         _______ _______ _______ _____ _____    ______ ____

>  <TORSDO>
F 10

$$$$
=
 OpenBabel07192307433D

 67 71  0  0  1  0  0  0  0  0999 V2000
    3.6460    6.7260   17.5370 C   0  0  0  0  0  0  0  0  0  0  0  0
    3.0900    7.9850   17.7670 C   0  0  0  0  0  0  0  0  0  0  0  0
    2.2950    8.1190   18.8880 C   0  0  0  0  0  0  0  0  0  0  0  0
    2.0700    7.0750   19.7880 C   0  0  0  0  0  0  0  0  0  0  0  0
    1.1660    7.5600   20.8770 C   0  0  0  0  0  0  0  0  0  0  0  0
    0.8800    8.9390   20.5080 N   0  0  0  0  0  0  0  0  0  0  0  0
    1.5280    9.2920   19.3200 C   0  0  0  0  0  0  0  0  0  0  0  0
    1.5100   10.3180   18.6690 O   0  0  0  0  0  0  0  0  0  0  0  0
    2.6430    5.8110   19.5970 C   0  0  0  0  0  0  0  0  0  0  0  0
    3.4360    5.6560   18.4390 C   0  0  0  0  0  0  0  0  0  0  0  0
    3.2560    8.8180   17.0910 H   0  0  0  0  0  0  0  0  0  0  0  0
    1.6820    7.5390   21.8430 H   0  0  0  0  0  0  0  0  0  0  0  0
    0.2350    6.9820   20.8970 H   0  0  0  0  0  0  0  0  0  0  0  0
    3.9110    4.6980   18.2130 H   0  0  0  0  0  0  0  0  0  0  0  0
    4.8990    4.0330   16.8250 C   0  0  1  0  0  0  0  0  0  0  0  0
    5.9090    3.0740   16.1690 C   0  0  0  0  0  0  0  0  0  0  0  0
    7.0150    3.9990   15.6820 C   0  0  1  0  0  0  0  0  0  0  0  0
    6.2300    5.2240   15.2100 C   0  0  0  0  0  0  0  0  0  0  0  0
    5.1210    5.3190   16.1490 N   0  0  0  0  0  0  0  0  0  0  0  0
    4.5300    6.5470   16.3700 C   0  0  0  0  0  0  0  0  0  0  0  0
    4.7330    7.5320   15.6640 O   0  0  0  0  0  0  0  0  0  0  0  0
    5.1440    4.1550   17.8840 H   0  0  0  0  0  0  0  0  0  0  0  0
    5.4610    2.5520   15.3120 H   0  0  0  0  0  0  0  0  0  0  0  0
    6.2610    2.3190   16.8810 H   0  0  0  0  0  0  0  0  0  0  0  0
    7.6300    3.5610   14.8900 H   0  0  0  0  0  0  0  0  0  0  0  0
    5.8000    5.0680   14.2140 H   0  0  0  0  0  0  0  0  0  0  0  0
    6.8280    6.1400   15.2190 H   0  0  0  0  0  0  0  0  0  0  0  0
    3.4780    3.4980   16.6740 C   0  0  0  0  0  0  0  0  0  0  0  0
    3.4780    2.4710   16.2900 H   0  0  0  0  0  0  0  0  0  0  0  0
    2.8810    4.1000   15.9830 H   0  0  0  0  0  0  0  0  0  0  0  0
    2.9640    3.5010   17.6430 H   0  0  0  0  0  0  0  0  0  0  0  0
    7.8680    4.3130   16.7840 O   0  0  0  0  0  0  0  0  0  0  0  0
    7.4510    5.0430   17.2770 H   0  0  0  0  0  0  0  0  0  0  0  0
    0.0270    9.7680   21.2890 C   0  0  0  0  0  0  0  0  0  0  0  0
   -0.1670    9.5130   22.6560 C   0  0  0  0  0  0  0  0  0  0  0  0
   -0.9790   10.3390   23.4380 C   0  0  0  0  0  0  0  0  0  0  0  0
   -1.6190   11.4350   22.8710 C   0  0  0  0  0  0  0  0  0  0  0  0
   -1.4630   11.7120   21.5090 C   0  0  0  0  0  0  0  0  0  0  0  0
   -0.6380   10.8710   20.7370 C   0  0  0  0  0  0  0  0  0  0  0  0
    0.3130    8.6780   23.1570 H   0  0  0  0  0  0  0  0  0  0  0  0
   -1.1040   10.1270   24.4980 H   0  0  0  0  0  0  0  0  0  0  0  0
   -2.2400   12.0680   23.5020 H   0  0  0  0  0  0  0  0  0  0  0  0
   -0.5310   11.1040   19.6820 H   0  0  0  0  0  0  0  0  0  0  0  0
   -2.1290   12.9130   20.8500 C   0  0  2  0  0  0  0  0  0  0  0  0
   -1.4270   13.3400   20.1210 H   0  0  0  0  0  0  0  0  0  0  0  0
   -2.3960   14.0050   21.8940 C   0  0  0  0  0  0  0  0  0  0  0  0
   -2.7200   14.9340   21.4130 H   0  0  0  0  0  0  0  0  0  0  0  0
   -1.4930   14.2230   22.4740 H   0  0  0  0  0  0  0  0  0  0  0  0
   -3.1810   13.7060   22.6000 H   0  0  0  0  0  0  0  0  0  0  0  0
   -3.4340   12.5680   20.0980 C   0  0  0  0  0  0  0  0  0  0  0  0
   -3.9960   13.4940   19.9120 H   0  0  0  0  0  0  0  0  0  0  0  0
   -4.0900   11.9460   20.7190 H   0  0  0  0  0  0  0  0  0  0  0  0
   -3.2040   11.8970   18.7800 C   0  0  0  0  0  0  0  0  0  0  0  0
   -2.1590   11.9530   17.8730 C   0  0  0  0  0  0  0  0  0  0  0  0
   -2.5440   11.0620   16.8450 C   0  0  0  0  0  0  0  0  0  0  0  0
   -3.7240   10.4860   17.0740 N   0  0  0  0  0  0  0  0  0  0  0  0
   -4.1110   11.0190   18.2440 N   0  0  0  0  0  0  0  0  0  0  0  0
   -2.0060   10.8080   15.9400 H   0  0  0  0  0  0  0  0  0  0  0  0
   -5.0060   10.7290   18.6260 H   0  0  0  0  0  0  0  0  0  0  0  0
   -0.9160   12.7530   17.9370 C   0  0  0  0  0  0  0  0  0  0  0  0
   -0.2700   12.5520   17.0760 H   0  0  0  0  0  0  0  0  0  0  0  0
   -1.1440   13.8230   17.9380 H   0  0  0  0  0  0  0  0  0  0  0  0
   -0.3610   12.5190   18.8510 H   0  0  0  0  0  0  0  0  0  0  0  0
    2.3260    4.6790   20.5530 C   0  0  0  0  0  0  0  0  0  0  0  0
    1.0040    4.3470   20.4860 F   0  0  0  0  0  0  0  0  0  0  0  0
    2.5390    5.0380   21.8550 F   0  0  0  0  0  0  0  0  0  0  0  0
    3.2820    3.2030   20.2580 Cl  0  0  0  0  0  0  0  0  0  0  0  0
  1  2  2  0  0  0  0
  1 10  1  0  0  0  0
  2  3  1  0  0  0  0
  3  7  1  0  0  0  0
  3  4  2  0  0  0  0
  4  5  1  0  0  0  0
  5 13  1  0  0  0  0
  5 12  1  0  0  0  0
  6  5  1  0  0  0  0
  6 34  1  0  0  0  0
  7  6  1  0  0  0  0
  8  7  2  0  0  0  0
  9  4  1  0  0  0  0
  9 64  1  0  0  0  0
 10  9  2  0  0  0  0
 11  2  1  0  0  0  0
 14 10  1  0  0  0  0
 15 22  1  1  0  0  0
 16 15  1  0  0  0  0
 16 24  1  0  0  0  0
 17 25  1  6  0  0  0
 17 16  1  0  0  0  0
 17 32  1  0  0  0  0
 18 27  1  0  0  0  0
 18 17  1  0  0  0  0
 18 19  1  0  0  0  0
 19 20  1  0  0  0  0
 19 15  1  0  0  0  0
 20  1  1  0  0  0  0
 21 20  2  0  0  0  0
 23 16  1  0  0  0  0
 26 18  1  0  0  0  0
 28 15  1  0  0  0  0
 28 31  1  0  0  0  0
 29 28  1  0  0  0  0
 30 28  1  0  0  0  0
 32 33  1  0  0  0  0
 34 35  1  0  0  0  0
 35 40  1  0  0  0  0
 35 36  2  0  0  0  0
 36 41  1  0  0  0  0
 37 36  1  0  0  0  0
 37 42  1  0  0  0  0
 38 37  2  0  0  0  0
 39 34  2  0  0  0  0
 39 38  1  0  0  0  0
 43 39  1  0  0  0  0
 44 45  1  6  0  0  0
 44 38  1  0  0  0  0
 44 46  1  0  0  0  0
 46 48  1  0  0  0  0
 46 49  1  0  0  0  0
 47 46  1  0  0  0  0
 50 52  1  0  0  0  0
 50 44  1  0  0  0  0
 51 50  1  0  0  0  0
 53 50  1  0  0  0  0
 54 60  1  0  0  0  0
 54 53  2  0  0  0  0
 55 56  2  0  0  0  0
 55 54  1  0  0  0  0
 56 57  1  0  0  0  0
 57 59  1  0  0  0  0
 57 53  1  0  0  0  0
 58 55  1  0  0  0  0
 60 62  1  0  0  0  0
 60 63  1  0  0  0  0
 61 60  1  0  0  0  0
 64 66  1  0  0  0  0
 65 64  1  0  0  0  0
 67 64  1  0  0  0  0
M  END
>  <MODEL>
12

>  <REMARK>
 VINA RESULT:    -8.357      1.646      2.329
 INTER + INTRA:         -11.281
 INTER:                 -12.018
 INTRA:                   0.736
 UNBOUND:                 0.984
  Name = 
  10 active torsions:
  status: ('A' for Active; 'I' for Inactive)
    1  A    between atoms: C_1  and  C_2
    2  A    between atoms: C_4  and  O_38
    3  A    between atoms: C_7  and  C_9
    4  A    between atoms: N_14  and  C_17
    5  A    between atoms: C_21  and  C_23
    6  A    between atoms: C_23  and  C_24
    7  A    between atoms: C_23  and  C_25
    8  A    between atoms: C_25  and  C_26
    9  A    between atoms: C_27  and  C_31
   10  A    between atoms: C_32  and  C_34
                            x       y       z     vdW  Elec       q    Type
                         _______ _______ _______ _____ _____    ______ ____

>  <TORSDO>
F 10

$$$$
=
 OpenBabel07192307433D

 67 71  0  0  1  0  0  0  0  0999 V2000
    3.6410    4.1690   17.6690 C   0  0  0  0  0  0  0  0  0  0  0  0
    3.5420    5.5600   17.6920 C   0  0  0  0  0  0  0  0  0  0  0  0
    2.7660    6.1130   18.6910 C   0  0  0  0  0  0  0  0  0  0  0  0
    2.1300    5.3470   19.6700 C   0  0  0  0  0  0  0  0  0  0  0  0
    1.3770    6.2580   20.5870 C   0  0  0  0  0  0  0  0  0  0  0  0
    1.6140    7.5850   20.0350 N   0  0  0  0  0  0  0  0  0  0  0  0
    2.4260    7.5250   18.8980 C   0  0  0  0  0  0  0  0  0  0  0  0
    2.8120    8.3920   18.1390 O   0  0  0  0  0  0  0  0  0  0  0  0
    2.2410    3.9510   19.6880 C   0  0  0  0  0  0  0  0  0  0  0  0
    3.0090    3.3740   18.6540 C   0  0  0  0  0  0  0  0  0  0  0  0
    4.0340    6.1830   16.9510 H   0  0  0  0  0  0  0  0  0  0  0  0
    1.7850    6.2060   21.6020 H   0  0  0  0  0  0  0  0  0  0  0  0
    0.3050    6.0350   20.5640 H   0  0  0  0  0  0  0  0  0  0  0  0
    3.1360    2.2890   18.5930 H   0  0  0  0  0  0  0  0  0  0  0  0
    6.4240    5.2110   16.9700 C   0  0  1  0  0  0  0  0  0  0  0  0
    7.6830    5.4110   16.1040 C   0  0  0  0  0  0  0  0  0  0  0  0
    7.2610    4.8900   14.7380 C   0  0  1  0  0  0  0  0  0  0  0  0
    6.3850    3.6910   15.1030 C   0  0  0  0  0  0  0  0  0  0  0  0
    5.7050    4.1050   16.3210 N   0  0  0  0  0  0  0  0  0  0  0  0
    4.4860    3.5380   16.6390 C   0  0  0  0  0  0  0  0  0  0  0  0
    4.0370    2.5440   16.0740 O   0  0  0  0  0  0  0  0  0  0  0  0
    5.7980    6.1060   16.9180 H   0  0  0  0  0  0  0  0  0  0  0  0
    8.5230    4.8140   16.4830 H   0  0  0  0  0  0  0  0  0  0  0  0
    7.9900    6.4630   16.0880 H   0  0  0  0  0  0  0  0  0  0  0  0
    8.1070    4.6160   14.0980 H   0  0  0  0  0  0  0  0  0  0  0  0
    6.9890    2.8100   15.3510 H   0  0  0  0  0  0  0  0  0  0  0  0
    5.6630    3.4390   14.3200 H   0  0  0  0  0  0  0  0  0  0  0  0
    6.8120    4.9250   18.4180 C   0  0  0  0  0  0  0  0  0  0  0  0
    6.4010    5.6810   19.0970 H   0  0  0  0  0  0  0  0  0  0  0  0
    7.8960    4.9180   18.5610 H   0  0  0  0  0  0  0  0  0  0  0  0
    6.4320    3.9440   18.7270 H   0  0  0  0  0  0  0  0  0  0  0  0
    6.5110    5.9060   14.0700 O   0  0  0  0  0  0  0  0  0  0  0  0
    6.3400    5.5940   13.1630 H   0  0  0  0  0  0  0  0  0  0  0  0
    1.0510    8.7550   20.6160 C   0  0  0  0  0  0  0  0  0  0  0  0
    0.6990    8.7850   21.9740 C   0  0  0  0  0  0  0  0  0  0  0  0
    0.1720    9.9390   22.5610 C   0  0  0  0  0  0  0  0  0  0  0  0
   -0.0200   11.0880   21.8010 C   0  0  0  0  0  0  0  0  0  0  0  0
    0.3040   11.0920   20.4400 C   0  0  0  0  0  0  0  0  0  0  0  0
    0.8370    9.9210   19.8680 C   0  0  0  0  0  0  0  0  0  0  0  0
    0.8330    7.9230   22.6200 H   0  0  0  0  0  0  0  0  0  0  0  0
   -0.0820    9.9410   23.6190 H   0  0  0  0  0  0  0  0  0  0  0  0
   -0.4240   11.9770   22.2810 H   0  0  0  0  0  0  0  0  0  0  0  0
    1.0810    9.9450   18.8100 H   0  0  0  0  0  0  0  0  0  0  0  0
    0.1290   12.3330   19.5740 C   0  0  2  0  0  0  0  0  0  0  0  0
   -0.0340   12.0100   18.5370 H   0  0  0  0  0  0  0  0  0  0  0  0
    1.4200   13.1620   19.5780 C   0  0  0  0  0  0  0  0  0  0  0  0
    2.2970   12.5180   19.4550 H   0  0  0  0  0  0  0  0  0  0  0  0
    1.5330   13.7100   20.5190 H   0  0  0  0  0  0  0  0  0  0  0  0
    1.4310   13.8950   18.7610 H   0  0  0  0  0  0  0  0  0  0  0  0
   -1.0700   13.2170   19.9840 C   0  0  0  0  0  0  0  0  0  0  0  0
   -0.9700   14.2010   19.5060 H   0  0  0  0  0  0  0  0  0  0  0  0
   -1.0610   13.4120   21.0640 H   0  0  0  0  0  0  0  0  0  0  0  0
   -2.3960   12.6450   19.5890 C   0  0  0  0  0  0  0  0  0  0  0  0
   -3.5950   12.5110   20.2690 C   0  0  0  0  0  0  0  0  0  0  0  0
   -4.4640   11.9150   19.3250 C   0  0  0  0  0  0  0  0  0  0  0  0
   -3.8760   11.6910   18.1510 N   0  0  0  0  0  0  0  0  0  0  0  0
   -2.6210   12.1270   18.3400 N   0  0  0  0  0  0  0  0  0  0  0  0
   -5.5040   11.6400   19.4500 H   0  0  0  0  0  0  0  0  0  0  0  0
   -1.9690   12.0510   17.5650 H   0  0  0  0  0  0  0  0  0  0  0  0
   -3.9220   12.8920   21.6610 C   0  0  0  0  0  0  0  0  0  0  0  0
   -4.9300   13.3140   21.7310 H   0  0  0  0  0  0  0  0  0  0  0  0
   -3.8800   12.0200   22.3210 H   0  0  0  0  0  0  0  0  0  0  0  0
   -3.2070   13.6350   22.0290 H   0  0  0  0  0  0  0  0  0  0  0  0
    1.4840    3.1400   20.7220 C   0  0  0  0  0  0  0  0  0  0  0  0
    1.4240    1.8270   20.3560 F   0  0  0  0  0  0  0  0  0  0  0  0
    0.1810    3.5410   20.8290 F   0  0  0  0  0  0  0  0  0  0  0  0
    2.1890    3.2270   22.3570 Cl  0  0  0  0  0  0  0  0  0  0  0  0
  1  2  2  0  0  0  0
  1 10  1  0  0  0  0
  2  3  1  0  0  0  0
  3  7  1  0  0  0  0
  3  4  2  0  0  0  0
  4  9  1  0  0  0  0
  4  5  1  0  0  0  0
  5 12  1  0  0  0  0
  6  5  1  0  0  0  0
  6 34  1  0  0  0  0
  7  6  1  0  0  0  0
  8  7  2  0  0  0  0
  9 64  1  0  0  0  0
 10  9  2  0  0  0  0
 11  2  1  0  0  0  0
 13  5  1  0  0  0  0
 14 10  1  0  0  0  0
 15 22  1  6  0  0  0
 15 28  1  0  0  0  0
 16 23  1  0  0  0  0
 16 15  1  0  0  0  0
 17 25  1  6  0  0  0
 17 18  1  0  0  0  0
 17 16  1  0  0  0  0
 18 26  1  0  0  0  0
 18 19  1  0  0  0  0
 19 20  1  0  0  0  0
 19 15  1  0  0  0  0
 20  1  1  0  0  0  0
 21 20  2  0  0  0  0
 24 16  1  0  0  0  0
 27 18  1  0  0  0  0
 28 30  1  0  0  0  0
 28 31  1  0  0  0  0
 28 29  1  0  0  0  0
 32 17  1  0  0  0  0
 33 32  1  0  0  0  0
 34 35  1  0  0  0  0
 35 36  2  0  0  0  0
 35 40  1  0  0  0  0
 36 41  1  0  0  0  0
 37 42  1  0  0  0  0
 37 36  1  0  0  0  0
 38 37  2  0  0  0  0
 39 38  1  0  0  0  0
 39 34  2  0  0  0  0
 43 39  1  0  0  0  0
 44 45  1  6  0  0  0
 44 46  1  0  0  0  0
 44 50  1  0  0  0  0
 44 38  1  0  0  0  0
 46 48  1  0  0  0  0
 47 46  1  0  0  0  0
 49 46  1  0  0  0  0
 50 52  1  0  0  0  0
 51 50  1  0  0  0  0
 53 50  1  0  0  0  0
 53 54  2  0  0  0  0
 54 60  1  0  0  0  0
 55 58  1  0  0  0  0
 55 54  1  0  0  0  0
 56 57  1  0  0  0  0
 56 55  2  0  0  0  0
 57 53  1  0  0  0  0
 59 57  1  0  0  0  0
 60 61  1  0  0  0  0
 60 63  1  0  0  0  0
 60 62  1  0  0  0  0
 64 66  1  0  0  0  0
 64 67  1  0  0  0  0
 65 64  1  0  0  0  0
M  END
>  <MODEL>
13

>  <REMARK>
 VINA RESULT:    -8.344      1.221      1.488
 INTER + INTRA:         -11.262
 INTER:                 -10.469
 INTRA:                  -0.793
 UNBOUND:                 0.984
  Name = 
  10 active torsions:
  status: ('A' for Active; 'I' for Inactive)
    1  A    between atoms: C_1  and  C_2
    2  A    between atoms: C_4  and  O_38
    3  A    between atoms: C_7  and  C_9
    4  A    between atoms: N_14  and  C_17
    5  A    between atoms: C_21  and  C_23
    6  A    between atoms: C_23  and  C_24
    7  A    between atoms: C_23  and  C_25
    8  A    between atoms: C_25  and  C_26
    9  A    between atoms: C_27  and  C_31
   10  A    between atoms: C_32  and  C_34
                            x       y       z     vdW  Elec       q    Type
                         _______ _______ _______ _____ _____    ______ ____

>  <TORSDO>
F 10

$$$$
=
 OpenBabel07192307433D

 67 71  0  0  1  0  0  0  0  0999 V2000
    0.1450    9.8710   21.4980 C   0  0  0  0  0  0  0  0  0  0  0  0
    0.4830    8.5170   21.5290 C   0  0  0  0  0  0  0  0  0  0  0  0
    1.2270    8.0380   20.4700 C   0  0  0  0  0  0  0  0  0  0  0  0
    1.6690    8.8490   19.4230 C   0  0  0  0  0  0  0  0  0  0  0  0
    2.4390    8.0120   18.4510 C   0  0  0  0  0  0  0  0  0  0  0  0
    2.3730    6.6710   19.0140 N   0  0  0  0  0  0  0  0  0  0  0  0
    1.6460    6.6560   20.2090 C   0  0  0  0  0  0  0  0  0  0  0  0
    1.3330    5.7440   20.9480 O   0  0  0  0  0  0  0  0  0  0  0  0
    1.3700   10.2170   19.3850 C   0  0  0  0  0  0  0  0  0  0  0  0
    0.5860   10.7120   20.4500 C   0  0  0  0  0  0  0  0  0  0  0  0
    0.1640    7.8640   22.3350 H   0  0  0  0  0  0  0  0  0  0  0  0
    3.4830    8.3390   18.4050 H   0  0  0  0  0  0  0  0  0  0  0  0
    1.9620    8.0220   17.4650 H   0  0  0  0  0  0  0  0  0  0  0  0
    0.3010   11.7670   20.4890 H   0  0  0  0  0  0  0  0  0  0  0  0
   -1.5460   12.4010   21.2350 C   0  0  1  0  0  0  0  0  0  0  0  0
   -2.3050   13.6500   21.7190 C   0  0  0  0  0  0  0  0  0  0  0  0
   -1.8650   13.7940   23.1690 C   0  0  1  0  0  0  0  0  0  0  0  0
   -1.7820   12.3390   23.6300 C   0  0  0  0  0  0  0  0  0  0  0  0
   -1.3050   11.6210   22.4570 N   0  0  0  0  0  0  0  0  0  0  0  0
   -0.6200   10.4330   22.6260 C   0  0  0  0  0  0  0  0  0  0  0  0
   -0.5750    9.8260   23.6930 O   0  0  0  0  0  0  0  0  0  0  0  0
   -0.5780   12.6980   20.8210 H   0  0  0  0  0  0  0  0  0  0  0  0
   -3.3910   13.4940   21.6770 H   0  0  0  0  0  0  0  0  0  0  0  0
   -2.0620   14.5250   21.1060 H   0  0  0  0  0  0  0  0  0  0  0  0
   -2.5550   14.3910   23.7740 H   0  0  0  0  0  0  0  0  0  0  0  0
   -2.7710   11.9370   23.8780 H   0  0  0  0  0  0  0  0  0  0  0  0
   -1.1000   12.2000   24.4760 H   0  0  0  0  0  0  0  0  0  0  0  0
   -2.3610   11.6550   20.1820 C   0  0  0  0  0  0  0  0  0  0  0  0
   -3.0240   10.9140   20.6430 H   0  0  0  0  0  0  0  0  0  0  0  0
   -1.7260   11.1210   19.4700 H   0  0  0  0  0  0  0  0  0  0  0  0
   -2.9780   12.3580   19.6100 H   0  0  0  0  0  0  0  0  0  0  0  0
   -0.5860   14.4300   23.1990 O   0  0  0  0  0  0  0  0  0  0  0  0
    0.0860   13.7300   23.2850 H   0  0  0  0  0  0  0  0  0  0  0  0
    2.9800    5.5540   18.3760 C   0  0  0  0  0  0  0  0  0  0  0  0
    2.2590    4.3680   18.1660 C   0  0  0  0  0  0  0  0  0  0  0  0
    2.8360    3.2750   17.5130 C   0  0  0  0  0  0  0  0  0  0  0  0
    4.1500    3.3410   17.0600 C   0  0  0  0  0  0  0  0  0  0  0  0
    4.9050    4.5000   17.2650 C   0  0  0  0  0  0  0  0  0  0  0  0
    4.3050    5.5930   17.9220 C   0  0  0  0  0  0  0  0  0  0  0  0
    1.2280    4.2590   18.4890 H   0  0  0  0  0  0  0  0  0  0  0  0
    2.2530    2.3710   17.3520 H   0  0  0  0  0  0  0  0  0  0  0  0
    4.5750    2.4810   16.5480 H   0  0  0  0  0  0  0  0  0  0  0  0
    4.9100    6.4820   18.0710 H   0  0  0  0  0  0  0  0  0  0  0  0
    6.3400    4.6240   16.7690 C   0  0  2  0  0  0  0  0  0  0  0  0
    6.6920    3.6250   16.4780 H   0  0  0  0  0  0  0  0  0  0  0  0
    7.2510    5.0950   17.9100 C   0  0  0  0  0  0  0  0  0  0  0  0
    7.0540    6.1440   18.1590 H   0  0  0  0  0  0  0  0  0  0  0  0
    8.3070    5.0090   17.6310 H   0  0  0  0  0  0  0  0  0  0  0  0
    7.0970    4.5040   18.8210 H   0  0  0  0  0  0  0  0  0  0  0  0
    6.5000    5.5520   15.5440 C   0  0  0  0  0  0  0  0  0  0  0  0
    7.4320    6.1250   15.6480 H   0  0  0  0  0  0  0  0  0  0  0  0
    5.6970    6.2990   15.5130 H   0  0  0  0  0  0  0  0  0  0  0  0
    6.5530    4.8170   14.2410 C   0  0  0  0  0  0  0  0  0  0  0  0
    7.3950    4.9170   13.1460 C   0  0  0  0  0  0  0  0  0  0  0  0
    6.9270    3.9210   12.2570 C   0  0  0  0  0  0  0  0  0  0  0  0
    5.8850    3.2460   12.7400 N   0  0  0  0  0  0  0  0  0  0  0  0
    5.6670    3.8170   13.9350 N   0  0  0  0  0  0  0  0  0  0  0  0
    7.3110    3.6610   11.2790 H   0  0  0  0  0  0  0  0  0  0  0  0
    4.8990    3.4640   14.4970 H   0  0  0  0  0  0  0  0  0  0  0  0
    8.5290    5.8420   12.9280 C   0  0  0  0  0  0  0  0  0  0  0  0
    9.1810    5.4880   12.1230 H   0  0  0  0  0  0  0  0  0  0  0  0
    8.1680    6.8370   12.6490 H   0  0  0  0  0  0  0  0  0  0  0  0
    9.1240    5.9360   13.8420 H   0  0  0  0  0  0  0  0  0  0  0  0
    1.8040   11.0590   18.2020 C   0  0  0  0  0  0  0  0  0  0  0  0
    1.4980   10.4340   17.0270 F   0  0  0  0  0  0  0  0  0  0  0  0
    3.1590   11.2340   18.1720 F   0  0  0  0  0  0  0  0  0  0  0  0
    1.0700   12.6840   18.1710 Cl  0  0  0  0  0  0  0  0  0  0  0  0
  1  2  1  0  0  0  0
  1 20  1  0  0  0  0
  2 11  1  0  0  0  0
  3  2  2  0  0  0  0
  4  3  1  0  0  0  0
  5  6  1  0  0  0  0
  5  4  1  0  0  0  0
  6  7  1  0  0  0  0
  7  3  1  0  0  0  0
  7  8  2  0  0  0  0
  9  4  2  0  0  0  0
  9 10  1  0  0  0  0
 10 14  1  0  0  0  0
 10  1  2  0  0  0  0
 12  5  1  0  0  0  0
 13  5  1  0  0  0  0
 15 22  1  6  0  0  0
 15 16  1  0  0  0  0
 15 19  1  0  0  0  0
 16 17  1  0  0  0  0
 17 32  1  0  0  0  0
 17 18  1  0  0  0  0
 17 25  1  1  0  0  0
 18 26  1  0  0  0  0
 18 27  1  0  0  0  0
 19 20  1  0  0  0  0
 19 18  1  0  0  0  0
 20 21  2  0  0  0  0
 23 16  1  0  0  0  0
 24 16  1  0  0  0  0
 28 29  1  0  0  0  0
 28 15  1  0  0  0  0
 30 28  1  0  0  0  0
 31 28  1  0  0  0  0
 32 33  1  0  0  0  0
 34  6  1  0  0  0  0
 35 34  1  0  0  0  0
 35 40  1  0  0  0  0
 36 35  2  0  0  0  0
 37 38  2  0  0  0  0
 37 36  1  0  0  0  0
 38 39  1  0  0  0  0
 39 43  1  0  0  0  0
 39 34  2  0  0  0  0
 41 36  1  0  0  0  0
 42 37  1  0  0  0  0
 44 45  1  6  0  0  0
 44 38  1  0  0  0  0
 44 46  1  0  0  0  0
 46 47  1  0  0  0  0
 46 49  1  0  0  0  0
 48 46  1  0  0  0  0
 50 51  1  0  0  0  0
 50 44  1  0  0  0  0
 52 50  1  0  0  0  0
 53 50  1  0  0  0  0
 54 53  2  0  0  0  0
 55 56  2  0  0  0  0
 55 54  1  0  0  0  0
 56 57  1  0  0  0  0
 57 53  1  0  0  0  0
 57 59  1  0  0  0  0
 58 55  1  0  0  0  0
 60 54  1  0  0  0  0
 60 63  1  0  0  0  0
 61 60  1  0  0  0  0
 62 60  1  0  0  0  0
 64  9  1  0  0  0  0
 65 64  1  0  0  0  0
 66 64  1  0  0  0  0
 67 64  1  0  0  0  0
M  END
>  <MODEL>
14

>  <REMARK>
 VINA RESULT:    -8.160      3.930      9.983
 INTER + INTRA:         -10.992
 INTER:                 -10.719
 INTRA:                  -0.272
 UNBOUND:                 0.984
  Name = 
  10 active torsions:
  status: ('A' for Active; 'I' for Inactive)
    1  A    between atoms: C_1  and  C_2
    2  A    between atoms: C_4  and  O_38
    3  A    between atoms: C_7  and  C_9
    4  A    between atoms: N_14  and  C_17
    5  A    between atoms: C_21  and  C_23
    6  A    between atoms: C_23  and  C_24
    7  A    between atoms: C_23  and  C_25
    8  A    between atoms: C_25  and  C_26
    9  A    between atoms: C_27  and  C_31
   10  A    between atoms: C_32  and  C_34
                            x       y       z     vdW  Elec       q    Type
                         _______ _______ _______ _____ _____    ______ ____

>  <TORSDO>
F 10

$$$$
=
 OpenBabel07192307433D

 67 71  0  0  1  0  0  0  0  0999 V2000
   -3.0050   13.0100   20.4520 C   0  0  0  0  0  0  0  0  0  0  0  0
   -1.7220   12.5590   20.7670 C   0  0  0  0  0  0  0  0  0  0  0  0
   -1.1920   11.5760   19.9560 C   0  0  0  0  0  0  0  0  0  0  0  0
   -1.8640   11.0650   18.8440 C   0  0  0  0  0  0  0  0  0  0  0  0
   -1.0100   10.0200   18.1980 C   0  0  0  0  0  0  0  0  0  0  0  0
    0.1750    9.9640   19.0430 N   0  0  0  0  0  0  0  0  0  0  0  0
    0.0850   10.8710   20.1040 C   0  0  0  0  0  0  0  0  0  0  0  0
    0.8340   11.0940   21.0350 O   0  0  0  0  0  0  0  0  0  0  0  0
   -3.1390   11.5240   18.4890 C   0  0  0  0  0  0  0  0  0  0  0  0
   -3.7020   12.5100   19.3280 C   0  0  0  0  0  0  0  0  0  0  0  0
   -1.1710   12.9460   21.6180 H   0  0  0  0  0  0  0  0  0  0  0  0
   -0.7240   10.3280   17.1870 H   0  0  0  0  0  0  0  0  0  0  0  0
   -1.5130    9.0470   18.2040 H   0  0  0  0  0  0  0  0  0  0  0  0
   -4.6980   12.9130   19.1240 H   0  0  0  0  0  0  0  0  0  0  0  0
   -1.7970   13.8950   23.1140 C   0  0  1  0  0  0  0  0  0  0  0  0
   -1.7760   14.5440   24.5100 C   0  0  0  0  0  0  0  0  0  0  0  0
   -3.2470   14.7900   24.8110 C   0  0  1  0  0  0  0  0  0  0  0  0
   -3.7960   15.1960   23.4430 C   0  0  0  0  0  0  0  0  0  0  0  0
   -3.0410   14.3830   22.5010 N   0  0  0  0  0  0  0  0  0  0  0  0
   -3.5960   14.0840   21.2720 C   0  0  0  0  0  0  0  0  0  0  0  0
   -4.5990   14.6400   20.8320 O   0  0  0  0  0  0  0  0  0  0  0  0
   -1.8670   12.8090   23.2160 H   0  0  0  0  0  0  0  0  0  0  0  0
   -1.2390   15.5020   24.4930 H   0  0  0  0  0  0  0  0  0  0  0  0
   -1.2890   13.8920   25.2440 H   0  0  0  0  0  0  0  0  0  0  0  0
   -3.4120   15.5540   25.5770 H   0  0  0  0  0  0  0  0  0  0  0  0
   -3.5760   16.2460   23.2160 H   0  0  0  0  0  0  0  0  0  0  0  0
   -4.8700   15.0100   23.3440 H   0  0  0  0  0  0  0  0  0  0  0  0
   -0.5400   14.2680   22.3320 C   0  0  0  0  0  0  0  0  0  0  0  0
   -0.3940   13.6030   21.4730 H   0  0  0  0  0  0  0  0  0  0  0  0
    0.3620   14.2050   22.9460 H   0  0  0  0  0  0  0  0  0  0  0  0
   -0.6150   15.2970   21.9600 H   0  0  0  0  0  0  0  0  0  0  0  0
   -3.8310   13.5690   25.2710 O   0  0  0  0  0  0  0  0  0  0  0  0
   -4.2180   13.1210   24.4960 H   0  0  0  0  0  0  0  0  0  0  0  0
    1.2480    9.0690   18.7790 C   0  0  0  0  0  0  0  0  0  0  0  0
    2.0830    9.2560   17.6660 C   0  0  0  0  0  0  0  0  0  0  0  0
    3.1580    8.3990   17.4140 C   0  0  0  0  0  0  0  0  0  0  0  0
    3.4200    7.3320   18.2670 C   0  0  0  0  0  0  0  0  0  0  0  0
    2.6010    7.1030   19.3770 C   0  0  0  0  0  0  0  0  0  0  0  0
    1.5240    7.9800   19.6170 C   0  0  0  0  0  0  0  0  0  0  0  0
    1.9340   10.0760   16.9700 H   0  0  0  0  0  0  0  0  0  0  0  0
    3.7970    8.5720   16.5510 H   0  0  0  0  0  0  0  0  0  0  0  0
    4.2670    6.6830   18.0550 H   0  0  0  0  0  0  0  0  0  0  0  0
    0.9010    7.7840   20.4840 H   0  0  0  0  0  0  0  0  0  0  0  0
    2.8620    5.9590   20.3480 C   0  0  2  0  0  0  0  0  0  0  0  0
    3.1910    6.3870   21.3050 H   0  0  0  0  0  0  0  0  0  0  0  0
    4.0180    5.0890   19.8370 C   0  0  0  0  0  0  0  0  0  0  0  0
    3.9310    4.9220   18.7580 H   0  0  0  0  0  0  0  0  0  0  0  0
    4.0220    4.1120   20.3300 H   0  0  0  0  0  0  0  0  0  0  0  0
    4.9910    5.5610   20.0220 H   0  0  0  0  0  0  0  0  0  0  0  0
    1.6210    5.0820   20.6280 C   0  0  0  0  0  0  0  0  0  0  0  0
    0.7170    5.6410   20.3490 H   0  0  0  0  0  0  0  0  0  0  0  0
    1.5220    4.8780   21.7010 H   0  0  0  0  0  0  0  0  0  0  0  0
    1.6190    3.7920   19.8690 C   0  0  0  0  0  0  0  0  0  0  0  0
    1.4890    3.5020   18.5210 C   0  0  0  0  0  0  0  0  0  0  0  0
    1.5990    2.0930   18.4570 C   0  0  0  0  0  0  0  0  0  0  0  0
    1.7830    1.5340   19.6530 N   0  0  0  0  0  0  0  0  0  0  0  0
    1.7760    2.5810   20.4930 N   0  0  0  0  0  0  0  0  0  0  0  0
    1.5550    1.4550   17.5830 H   0  0  0  0  0  0  0  0  0  0  0  0
    1.8960    2.3970   21.4840 H   0  0  0  0  0  0  0  0  0  0  0  0
    1.2830    4.4300   17.3870 C   0  0  0  0  0  0  0  0  0  0  0  0
    0.3100    4.2660   16.9120 H   0  0  0  0  0  0  0  0  0  0  0  0
    1.3160    5.4700   17.7270 H   0  0  0  0  0  0  0  0  0  0  0  0
    2.0660    4.2900   16.6350 H   0  0  0  0  0  0  0  0  0  0  0  0
   -3.8730   10.9020   17.3170 C   0  0  0  0  0  0  0  0  0  0  0  0
   -5.1380   11.4060   17.2180 F   0  0  0  0  0  0  0  0  0  0  0  0
   -4.0380    9.5540   17.4780 F   0  0  0  0  0  0  0  0  0  0  0  0
   -3.0580   11.1430   15.7500 Cl  0  0  0  0  0  0  0  0  0  0  0  0
  1  2  1  0  0  0  0
  1 20  1  0  0  0  0
  2 11  1  0  0  0  0
  3  7  1  0  0  0  0
  3  2  2  0  0  0  0
  4  3  1  0  0  0  0
  5 13  1  0  0  0  0
  5  4  1  0  0  0  0
  5  6  1  0  0  0  0
  6  7  1  0  0  0  0
  7  8  2  0  0  0  0
  9  4  2  0  0  0  0
  9 10  1  0  0  0  0
 10  1  2  0  0  0  0
 12  5  1  0  0  0  0
 14 10  1  0  0  0  0
 15 22  1  1  0  0  0
 15 16  1  0  0  0  0
 16 17  1  0  0  0  0
 16 24  1  0  0  0  0
 17 32  1  0  0  0  0
 17 25  1  1  0  0  0
 18 17  1  0  0  0  0
 19 15  1  0  0  0  0
 19 18  1  0  0  0  0
 20 19  1  0  0  0  0
 21 20  2  0  0  0  0
 23 16  1  0  0  0  0
 26 18  1  0  0  0  0
 27 18  1  0  0  0  0
 28 30  1  0  0  0  0
 28 15  1  0  0  0  0
 29 28  1  0  0  0  0
 31 28  1  0  0  0  0
 33 32  1  0  0  0  0
 34  6  1  0  0  0  0
 34 39  1  0  0  0  0
 35 34  2  0  0  0  0
 36 35  1  0  0  0  0
 36 37  2  0  0  0  0
 37 38  1  0  0  0  0
 38 39  2  0  0  0  0
 38 44  1  0  0  0  0
 39 43  1  0  0  0  0
 40 35  1  0  0  0  0
 41 36  1  0  0  0  0
 42 37  1  0  0  0  0
 44 50  1  0  0  0  0
 44 45  1  1  0  0  0
 46 49  1  0  0  0  0
 46 48  1  0  0  0  0
 46 44  1  0  0  0  0
 47 46  1  0  0  0  0
 50 52  1  0  0  0  0
 51 50  1  0  0  0  0
 53 57  1  0  0  0  0
 53 50  1  0  0  0  0
 54 53  2  0  0  0  0
 55 54  1  0  0  0  0
 55 56  2  0  0  0  0
 56 57  1  0  0  0  0
 57 59  1  0  0  0  0
 58 55  1  0  0  0  0
 60 62  1  0  0  0  0
 60 54  1  0  0  0  0
 61 60  1  0  0  0  0
 63 60  1  0  0  0  0
 64 66  1  0  0  0  0
 64  9  1  0  0  0  0
 65 64  1  0  0  0  0
 67 64  1  0  0  0  0
M  END
>  <MODEL>
15

>  <REMARK>
 VINA RESULT:    -8.143      4.774     10.419
 INTER + INTRA:         -10.967
 INTER:                 -11.435
 INTRA:                   0.468
 UNBOUND:                 0.984
  Name = 
  10 active torsions:
  status: ('A' for Active; 'I' for Inactive)
    1  A    between atoms: C_1  and  C_2
    2  A    between atoms: C_4  and  O_38
    3  A    between atoms: C_7  and  C_9
    4  A    between atoms: N_14  and  C_17
    5  A    between atoms: C_21  and  C_23
    6  A    between atoms: C_23  and  C_24
    7  A    between atoms: C_23  and  C_25
    8  A    between atoms: C_25  and  C_26
    9  A    between atoms: C_27  and  C_31
   10  A    between atoms: C_32  and  C_34
                            x       y       z     vdW  Elec       q    Type
                         _______ _______ _______ _____ _____    ______ ____

>  <TORSDO>
F 10

$$$$
=
 OpenBabel07192307433D

 67 71  0  0  1  0  0  0  0  0999 V2000
    3.6710    6.7230   17.4540 C   0  0  0  0  0  0  0  0  0  0  0  0
    3.1040    7.9770   17.6830 C   0  0  0  0  0  0  0  0  0  0  0  0
    2.3150    8.1070   18.8080 C   0  0  0  0  0  0  0  0  0  0  0  0
    2.1060    7.0650   19.7130 C   0  0  0  0  0  0  0  0  0  0  0  0
    1.2040    7.5450   20.8070 C   0  0  0  0  0  0  0  0  0  0  0  0
    0.9030    8.9200   20.4340 N   0  0  0  0  0  0  0  0  0  0  0  0
    1.5400    9.2750   19.2410 C   0  0  0  0  0  0  0  0  0  0  0  0
    1.5080   10.2980   18.5870 O   0  0  0  0  0  0  0  0  0  0  0  0
    2.6900    5.8060   19.5220 C   0  0  0  0  0  0  0  0  0  0  0  0
    3.4770    5.6550   18.3600 C   0  0  0  0  0  0  0  0  0  0  0  0
    3.2580    8.8100   17.0030 H   0  0  0  0  0  0  0  0  0  0  0  0
    1.7270    7.5330   21.7690 H   0  0  0  0  0  0  0  0  0  0  0  0
    0.2790    6.9580   20.8350 H   0  0  0  0  0  0  0  0  0  0  0  0
    3.9590    4.7000   18.1340 H   0  0  0  0  0  0  0  0  0  0  0  0
    4.9590    4.0440   16.7530 C   0  0  1  0  0  0  0  0  0  0  0  0
    5.9800    3.0950   16.0960 C   0  0  0  0  0  0  0  0  0  0  0  0
    7.0670    4.0340   15.5940 C   0  0  1  0  0  0  0  0  0  0  0  0
    6.2600    5.2420   15.1190 C   0  0  0  0  0  0  0  0  0  0  0  0
    5.1570    5.3280   16.0650 N   0  0  0  0  0  0  0  0  0  0  0  0
    4.5490    6.5490   16.2810 C   0  0  0  0  0  0  0  0  0  0  0  0
    4.7310    7.5300   15.5660 O   0  0  0  0  0  0  0  0  0  0  0  0
    5.2110    4.1780   17.8080 H   0  0  0  0  0  0  0  0  0  0  0  0
    5.5330    2.5600   15.2470 H   0  0  0  0  0  0  0  0  0  0  0  0
    6.3480    2.3520   16.8120 H   0  0  0  0  0  0  0  0  0  0  0  0
    7.6830    3.5980   14.8010 H   0  0  0  0  0  0  0  0  0  0  0  0
    5.8260    5.0720   14.1270 H   0  0  0  0  0  0  0  0  0  0  0  0
    6.8440    6.1680   15.1160 H   0  0  0  0  0  0  0  0  0  0  0  0
    3.5460    3.4860   16.6160 C   0  0  0  0  0  0  0  0  0  0  0  0
    3.1490    3.6500   15.6070 H   0  0  0  0  0  0  0  0  0  0  0  0
    2.8480    3.9530   17.3160 H   0  0  0  0  0  0  0  0  0  0  0  0
    3.5410    2.4080   16.8150 H   0  0  0  0  0  0  0  0  0  0  0  0
    7.9240    4.3700   16.6870 O   0  0  0  0  0  0  0  0  0  0  0  0
    7.6330    5.2340   17.0310 H   0  0  0  0  0  0  0  0  0  0  0  0
    0.0480    9.7430   21.2180 C   0  0  0  0  0  0  0  0  0  0  0  0
   -0.0140    9.5920   22.6120 C   0  0  0  0  0  0  0  0  0  0  0  0
   -0.8290   10.4160   23.3940 C   0  0  0  0  0  0  0  0  0  0  0  0
   -1.6040   11.4060   22.8000 C   0  0  0  0  0  0  0  0  0  0  0  0
   -1.5810   11.5770   21.4120 C   0  0  0  0  0  0  0  0  0  0  0  0
   -0.7510   10.7390   20.6410 C   0  0  0  0  0  0  0  0  0  0  0  0
    0.5730    8.8430   23.1340 H   0  0  0  0  0  0  0  0  0  0  0  0
   -0.8510   10.2860   24.4750 H   0  0  0  0  0  0  0  0  0  0  0  0
   -2.2240   12.0400   23.4300 H   0  0  0  0  0  0  0  0  0  0  0  0
   -0.7490   10.8890   19.5650 H   0  0  0  0  0  0  0  0  0  0  0  0
   -2.3980   12.6600   20.7200 C   0  0  2  0  0  0  0  0  0  0  0  0
   -3.4210   12.6290   21.1190 H   0  0  0  0  0  0  0  0  0  0  0  0
   -2.5030   12.3610   19.2190 C   0  0  0  0  0  0  0  0  0  0  0  0
   -3.5360   12.4720   18.8710 H   0  0  0  0  0  0  0  0  0  0  0  0
   -2.1830   11.3370   18.9990 H   0  0  0  0  0  0  0  0  0  0  0  0
   -1.8790   13.0410   18.6260 H   0  0  0  0  0  0  0  0  0  0  0  0
   -1.8520   14.0890   20.9390 C   0  0  0  0  0  0  0  0  0  0  0  0
   -1.5260   14.1930   21.9830 H   0  0  0  0  0  0  0  0  0  0  0  0
   -2.6450   14.8350   20.8020 H   0  0  0  0  0  0  0  0  0  0  0  0
   -0.6890   14.4250   20.0580 C   0  0  0  0  0  0  0  0  0  0  0  0
    0.6710   14.1930   20.1770 C   0  0  0  0  0  0  0  0  0  0  0  0
    1.2210   14.7370   18.9930 C   0  0  0  0  0  0  0  0  0  0  0  0
    0.2980   15.2670   18.1900 N   0  0  0  0  0  0  0  0  0  0  0  0
   -0.8480   15.0800   18.8630 N   0  0  0  0  0  0  0  0  0  0  0  0
    2.2590   14.7630   18.6850 H   0  0  0  0  0  0  0  0  0  0  0  0
   -1.7080   15.4160   18.4410 H   0  0  0  0  0  0  0  0  0  0  0  0
    1.4070   13.5310   21.2770 C   0  0  0  0  0  0  0  0  0  0  0  0
    1.4770   12.4510   21.1150 H   0  0  0  0  0  0  0  0  0  0  0  0
    2.4270   13.9230   21.3500 H   0  0  0  0  0  0  0  0  0  0  0  0
    0.9020   13.7080   22.2320 H   0  0  0  0  0  0  0  0  0  0  0  0
    2.3900    4.6740   20.4840 C   0  0  0  0  0  0  0  0  0  0  0  0
    2.4720    5.1050   21.7770 F   0  0  0  0  0  0  0  0  0  0  0  0
    3.3080    3.6650   20.3850 F   0  0  0  0  0  0  0  0  0  0  0  0
    0.7830    3.9390   20.2480 Cl  0  0  0  0  0  0  0  0  0  0  0  0
  1  2  2  0  0  0  0
  1 10  1  0  0  0  0
  2  3  1  0  0  0  0
  3  7  1  0  0  0  0
  3  4  2  0  0  0  0
  4  5  1  0  0  0  0
  5 13  1  0  0  0  0
  5 12  1  0  0  0  0
  6  5  1  0  0  0  0
  6 34  1  0  0  0  0
  7  6  1  0  0  0  0
  8  7  2  0  0  0  0
  9  4  1  0  0  0  0
  9 64  1  0  0  0  0
 10  9  2  0  0  0  0
 11  2  1  0  0  0  0
 14 10  1  0  0  0  0
 15 22  1  1  0  0  0
 16 15  1  0  0  0  0
 16 24  1  0  0  0  0
 17 25  1  6  0  0  0
 17 16  1  0  0  0  0
 17 32  1  0  0  0  0
 18 17  1  0  0  0  0
 18 19  1  0  0  0  0
 19 20  1  0  0  0  0
 19 15  1  0  0  0  0
 20  1  1  0  0  0  0
 21 20  2  0  0  0  0
 23 16  1  0  0  0  0
 26 18  1  0  0  0  0
 27 18  1  0  0  0  0
 28 15  1  0  0  0  0
 28 31  1  0  0  0  0
 28 30  1  0  0  0  0
 29 28  1  0  0  0  0
 32 33  1  0  0  0  0
 34 35  1  0  0  0  0
 35 40  1  0  0  0  0
 35 36  2  0  0  0  0
 36 41  1  0  0  0  0
 37 36  1  0  0  0  0
 37 42  1  0  0  0  0
 38 37  2  0  0  0  0
 39 34  2  0  0  0  0
 39 38  1  0  0  0  0
 43 39  1  0  0  0  0
 44 50  1  0  0  0  0
 44 45  1  1  0  0  0
 44 38  1  0  0  0  0
 46 44  1  0  0  0  0
 47 46  1  0  0  0  0
 48 46  1  0  0  0  0
 49 46  1  0  0  0  0
 50 51  1  0  0  0  0
 52 50  1  0  0  0  0
 53 54  2  0  0  0  0
 53 50  1  0  0  0  0
 54 60  1  0  0  0  0
 55 54  1  0  0  0  0
 56 57  1  0  0  0  0
 56 55  2  0  0  0  0
 57 53  1  0  0  0  0
 58 55  1  0  0  0  0
 59 57  1  0  0  0  0
 60 62  1  0  0  0  0
 60 63  1  0  0  0  0
 61 60  1  0  0  0  0
 64 65  1  0  0  0  0
 66 64  1  0  0  0  0
 67 64  1  0  0  0  0
M  END
>  <MODEL>
16

>  <REMARK>
 VINA RESULT:    -8.143      2.173      3.247
 INTER + INTRA:         -10.967
 INTER:                 -11.108
 INTRA:                   0.141
 UNBOUND:                 0.984
  Name = 
  10 active torsions:
  status: ('A' for Active; 'I' for Inactive)
    1  A    between atoms: C_1  and  C_2
    2  A    between atoms: C_4  and  O_38
    3  A    between atoms: C_7  and  C_9
    4  A    between atoms: N_14  and  C_17
    5  A    between atoms: C_21  and  C_23
    6  A    between atoms: C_23  and  C_24
    7  A    between atoms: C_23  and  C_25
    8  A    between atoms: C_25  and  C_26
    9  A    between atoms: C_27  and  C_31
   10  A    between atoms: C_32  and  C_34
                            x       y       z     vdW  Elec       q    Type
                         _______ _______ _______ _____ _____    ______ ____

>  <TORSDO>
F 10

$$$$
=
 OpenBabel07192307433D

 67 71  0  0  1  0  0  0  0  0999 V2000
   -1.4770   12.3550   20.5470 C   0  0  0  0  0  0  0  0  0  0  0  0
   -1.3810   11.0250   20.9610 C   0  0  0  0  0  0  0  0  0  0  0  0
   -0.2670   10.3240   20.5460 C   0  0  0  0  0  0  0  0  0  0  0  0
    0.7510   10.8980   19.7830 C   0  0  0  0  0  0  0  0  0  0  0  0
    1.7960    9.8620   19.5100 C   0  0  0  0  0  0  0  0  0  0  0  0
    1.2770    8.6630   20.1510 N   0  0  0  0  0  0  0  0  0  0  0  0
    0.0440    8.9060   20.7630 C   0  0  0  0  0  0  0  0  0  0  0  0
   -0.7200    8.1690   21.3540 O   0  0  0  0  0  0  0  0  0  0  0  0
    0.6940   12.2390   19.3820 C   0  0  0  0  0  0  0  0  0  0  0  0
   -0.4550   12.9580   19.7780 C   0  0  0  0  0  0  0  0  0  0  0  0
   -2.1510   10.5550   21.5640 H   0  0  0  0  0  0  0  0  0  0  0  0
    2.7470   10.1430   19.9750 H   0  0  0  0  0  0  0  0  0  0  0  0
    1.9020    9.6890   18.4330 H   0  0  0  0  0  0  0  0  0  0  0  0
   -0.5790   14.0070   19.4970 H   0  0  0  0  0  0  0  0  0  0  0  0
   -1.5290   13.8000   23.2370 C   0  0  1  0  0  0  0  0  0  0  0  0
   -2.1650   14.4850   24.4620 C   0  0  0  0  0  0  0  0  0  0  0  0
   -3.6430   14.1430   24.3330 C   0  0  1  0  0  0  0  0  0  0  0  0
   -3.8640   14.2180   22.8220 C   0  0  0  0  0  0  0  0  0  0  0  0
   -2.6200   13.7180   22.2550 N   0  0  0  0  0  0  0  0  0  0  0  0
   -2.6340   13.1510   20.9960 C   0  0  0  0  0  0  0  0  0  0  0  0
   -3.5880   13.2370   20.2270 O   0  0  0  0  0  0  0  0  0  0  0  0
   -1.2280   12.7830   23.5020 H   0  0  0  0  0  0  0  0  0  0  0  0
   -2.0340   15.5740   24.4180 H   0  0  0  0  0  0  0  0  0  0  0  0
   -1.7180   14.1230   25.3940 H   0  0  0  0  0  0  0  0  0  0  0  0
   -4.2950   14.8230   24.8910 H   0  0  0  0  0  0  0  0  0  0  0  0
   -3.9840   15.2540   22.4830 H   0  0  0  0  0  0  0  0  0  0  0  0
   -4.7150   13.6160   22.4880 H   0  0  0  0  0  0  0  0  0  0  0  0
   -0.3220   14.5950   22.7480 C   0  0  0  0  0  0  0  0  0  0  0  0
   -0.6230   15.3880   22.0520 H   0  0  0  0  0  0  0  0  0  0  0  0
    0.4020   13.9650   22.2250 H   0  0  0  0  0  0  0  0  0  0  0  0
    0.1950   15.0610   23.5950 H   0  0  0  0  0  0  0  0  0  0  0  0
   -3.8520   12.8200   24.8310 O   0  0  0  0  0  0  0  0  0  0  0  0
   -3.9670   12.8870   25.7970 H   0  0  0  0  0  0  0  0  0  0  0  0
    1.9760    7.4240   20.1120 C   0  0  0  0  0  0  0  0  0  0  0  0
    1.6630    6.3940   21.0140 C   0  0  0  0  0  0  0  0  0  0  0  0
    2.3230    5.1630   20.9650 C   0  0  0  0  0  0  0  0  0  0  0  0
    3.3150    4.9350   20.0160 C   0  0  0  0  0  0  0  0  0  0  0  0
    3.6650    5.9420   19.1110 C   0  0  0  0  0  0  0  0  0  0  0  0
    2.9860    7.1750   19.1740 C   0  0  0  0  0  0  0  0  0  0  0  0
    0.8930    6.5100   21.7700 H   0  0  0  0  0  0  0  0  0  0  0  0
    2.0540    4.3770   21.6670 H   0  0  0  0  0  0  0  0  0  0  0  0
    3.8090    3.9660   19.9930 H   0  0  0  0  0  0  0  0  0  0  0  0
    3.2750    7.9430   18.4620 H   0  0  0  0  0  0  0  0  0  0  0  0
    4.7310    5.7300   18.0440 C   0  0  2  0  0  0  0  0  0  0  0  0
    5.6230    5.3070   18.5260 H   0  0  0  0  0  0  0  0  0  0  0  0
    5.1530    7.0790   17.4480 C   0  0  0  0  0  0  0  0  0  0  0  0
    5.4200    7.7890   18.2390 H   0  0  0  0  0  0  0  0  0  0  0  0
    4.3420    7.5200   16.8600 H   0  0  0  0  0  0  0  0  0  0  0  0
    6.0240    6.9750   16.7890 H   0  0  0  0  0  0  0  0  0  0  0  0
    4.3040    4.7630   16.9180 C   0  0  0  0  0  0  0  0  0  0  0  0
    5.1940    4.4590   16.3500 H   0  0  0  0  0  0  0  0  0  0  0  0
    3.6510    5.2680   16.1960 H   0  0  0  0  0  0  0  0  0  0  0  0
    3.6320    3.5230   17.4190 C   0  0  0  0  0  0  0  0  0  0  0  0
    2.3000    3.1960   17.6140 C   0  0  0  0  0  0  0  0  0  0  0  0
    2.3350    1.8610   18.0820 C   0  0  0  0  0  0  0  0  0  0  0  0
    3.5740    1.3790   18.1760 N   0  0  0  0  0  0  0  0  0  0  0  0
    4.3420    2.4080   17.7840 N   0  0  0  0  0  0  0  0  0  0  0  0
    1.5040    1.2230   18.3540 H   0  0  0  0  0  0  0  0  0  0  0  0
    5.3480    2.2750   17.7800 H   0  0  0  0  0  0  0  0  0  0  0  0
    1.0970    4.0280   17.3930 C   0  0  0  0  0  0  0  0  0  0  0  0
    0.6340    3.8090   16.4260 H   0  0  0  0  0  0  0  0  0  0  0  0
    0.3490    3.8410   18.1700 H   0  0  0  0  0  0  0  0  0  0  0  0
    1.3600    5.0900   17.4200 H   0  0  0  0  0  0  0  0  0  0  0  0
    1.7800   12.8160   18.4970 C   0  0  0  0  0  0  0  0  0  0  0  0
    1.2500   13.6850   17.5870 F   0  0  0  0  0  0  0  0  0  0  0  0
    2.3960   11.8500   17.7500 F   0  0  0  0  0  0  0  0  0  0  0  0
    3.0600   13.6710   19.3970 Cl  0  0  0  0  0  0  0  0  0  0  0  0
  1  2  1  0  0  0  0
  1 20  1  0  0  0  0
  2 11  1  0  0  0  0
  3  7  1  0  0  0  0
  3  2  2  0  0  0  0
  4  3  1  0  0  0  0
  5  4  1  0  0  0  0
  5 12  1  0  0  0  0
  5  6  1  0  0  0  0
  6  7  1  0  0  0  0
  7  8  2  0  0  0  0
  9 10  1  0  0  0  0
  9  4  2  0  0  0  0
 10  1  2  0  0  0  0
 13  5  1  0  0  0  0
 14 10  1  0  0  0  0
 15 22  1  1  0  0  0
 15 16  1  0  0  0  0
 16 24  1  0  0  0  0
 17 16  1  0  0  0  0
 17 32  1  0  0  0  0
 17 25  1  1  0  0  0
 18 17  1  0  0  0  0
 19 18  1  0  0  0  0
 19 15  1  0  0  0  0
 20 19  1  0  0  0  0
 21 20  2  0  0  0  0
 23 16  1  0  0  0  0
 26 18  1  0  0  0  0
 27 18  1  0  0  0  0
 28 15  1  0  0  0  0
 28 31  1  0  0  0  0
 29 28  1  0  0  0  0
 30 28  1  0  0  0  0
 32 33  1  0  0  0  0
 34  6  1  0  0  0  0
 34 35  1  0  0  0  0
 35 40  1  0  0  0  0
 36 35  2  0  0  0  0
 36 41  1  0  0  0  0
 37 36  1  0  0  0  0
 38 39  1  0  0  0  0
 38 37  2  0  0  0  0
 39 34  2  0  0  0  0
 42 37  1  0  0  0  0
 43 39  1  0  0  0  0
 44 45  1  1  0  0  0
 44 38  1  0  0  0  0
 46 44  1  0  0  0  0
 46 47  1  0  0  0  0
 48 46  1  0  0  0  0
 49 46  1  0  0  0  0
 50 53  1  0  0  0  0
 50 44  1  0  0  0  0
 51 50  1  0  0  0  0
 52 50  1  0  0  0  0
 53 54  2  0  0  0  0
 53 57  1  0  0  0  0
 54 55  1  0  0  0  0
 55 56  2  0  0  0  0
 55 58  1  0  0  0  0
 57 56  1  0  0  0  0
 59 57  1  0  0  0  0
 60 63  1  0  0  0  0
 60 54  1  0  0  0  0
 60 62  1  0  0  0  0
 61 60  1  0  0  0  0
 64  9  1  0  0  0  0
 64 67  1  0  0  0  0
 65 64  1  0  0  0  0
 66 64  1  0  0  0  0
M  END
>  <MODEL>
17

>  <REMARK>
 VINA RESULT:    -8.050      4.419     10.137
 INTER + INTRA:         -10.831
 INTER:                 -10.504
 INTRA:                  -0.327
 UNBOUND:                 0.984
  Name = 
  10 active torsions:
  status: ('A' for Active; 'I' for Inactive)
    1  A    between atoms: C_1  and  C_2
    2  A    between atoms: C_4  and  O_38
    3  A    between atoms: C_7  and  C_9
    4  A    between atoms: N_14  and  C_17
    5  A    between atoms: C_21  and  C_23
    6  A    between atoms: C_23  and  C_24
    7  A    between atoms: C_23  and  C_25
    8  A    between atoms: C_25  and  C_26
    9  A    between atoms: C_27  and  C_31
   10  A    between atoms: C_32  and  C_34
                            x       y       z     vdW  Elec       q    Type
                         _______ _______ _______ _____ _____    ______ ____

>  <TORSDO>
F 10

$$$$
=
 OpenBabel07192307433D

 67 71  0  0  1  0  0  0  0  0999 V2000
    4.5670    6.3350   18.4140 C   0  0  0  0  0  0  0  0  0  0  0  0
    4.1450    7.6070   18.0240 C   0  0  0  0  0  0  0  0  0  0  0  0
    2.9170    8.0260   18.4940 C   0  0  0  0  0  0  0  0  0  0  0  0
    2.1290    7.2560   19.3510 C   0  0  0  0  0  0  0  0  0  0  0  0
    0.8700    8.0050   19.6580 C   0  0  0  0  0  0  0  0  0  0  0  0
    0.9990    9.2360   18.8920 N   0  0  0  0  0  0  0  0  0  0  0  0
    2.2020    9.2670   18.1780 C   0  0  0  0  0  0  0  0  0  0  0  0
    2.6550   10.0850   17.4020 O   0  0  0  0  0  0  0  0  0  0  0  0
    2.5450    5.9900   19.7830 C   0  0  0  0  0  0  0  0  0  0  0  0
    3.7870    5.5400   19.2850 C   0  0  0  0  0  0  0  0  0  0  0  0
    4.7420    8.2330   17.3680 H   0  0  0  0  0  0  0  0  0  0  0  0
    0.8160    8.2430   20.7260 H   0  0  0  0  0  0  0  0  0  0  0  0
   -0.0080    7.4470   19.3170 H   0  0  0  0  0  0  0  0  0  0  0  0
    4.1780    4.5590   19.5680 H   0  0  0  0  0  0  0  0  0  0  0  0
    5.1290    5.5650   15.5130 C   0  0  1  0  0  0  0  0  0  0  0  0
    5.8700    4.8750   14.3520 C   0  0  0  0  0  0  0  0  0  0  0  0
    6.8040    3.9010   15.0530 C   0  0  1  0  0  0  0  0  0  0  0  0
    7.2370    4.6960   16.2860 C   0  0  0  0  0  0  0  0  0  0  0  0
    6.0530    5.4590   16.6520 N   0  0  0  0  0  0  0  0  0  0  0  0
    5.8890    5.8610   17.9620 C   0  0  0  0  0  0  0  0  0  0  0  0
    6.7830    5.8060   18.8030 O   0  0  0  0  0  0  0  0  0  0  0  0
    4.2230    5.0030   15.7530 H   0  0  0  0  0  0  0  0  0  0  0  0
    6.4590    5.5990   13.7730 H   0  0  0  0  0  0  0  0  0  0  0  0
    5.1670    4.3840   13.6690 H   0  0  0  0  0  0  0  0  0  0  0  0
    7.6500    3.5880   14.4330 H   0  0  0  0  0  0  0  0  0  0  0  0
    8.0270    5.4160   16.0440 H   0  0  0  0  0  0  0  0  0  0  0  0
    7.5590    4.0550   17.1130 H   0  0  0  0  0  0  0  0  0  0  0  0
    4.7740    7.0020   15.1420 C   0  0  0  0  0  0  0  0  0  0  0  0
    5.6220    7.5120   14.6710 H   0  0  0  0  0  0  0  0  0  0  0  0
    4.4850    7.5940   16.0140 H   0  0  0  0  0  0  0  0  0  0  0  0
    3.9320    7.0160   14.4390 H   0  0  0  0  0  0  0  0  0  0  0  0
    6.0630    2.7340   15.4140 O   0  0  0  0  0  0  0  0  0  0  0  0
    5.9770    2.7310   16.3850 H   0  0  0  0  0  0  0  0  0  0  0  0
   -0.0120   10.2360   18.8950 C   0  0  0  0  0  0  0  0  0  0  0  0
   -1.2610    9.9970   18.3000 C   0  0  0  0  0  0  0  0  0  0  0  0
   -2.2710   10.9630   18.3240 C   0  0  0  0  0  0  0  0  0  0  0  0
   -2.0540   12.1910   18.9400 C   0  0  0  0  0  0  0  0  0  0  0  0
   -0.8180   12.4720   19.5300 C   0  0  0  0  0  0  0  0  0  0  0  0
    0.1870   11.4850   19.4990 C   0  0  0  0  0  0  0  0  0  0  0  0
   -1.4920    9.0560   17.8120 H   0  0  0  0  0  0  0  0  0  0  0  0
   -3.2340   10.7500   17.8650 H   0  0  0  0  0  0  0  0  0  0  0  0
   -2.8590   12.9240   18.9520 H   0  0  0  0  0  0  0  0  0  0  0  0
    1.1390   11.7240   19.9630 H   0  0  0  0  0  0  0  0  0  0  0  0
   -0.5440   13.7950   20.2320 C   0  0  2  0  0  0  0  0  0  0  0  0
   -1.4150   14.4490   20.0900 H   0  0  0  0  0  0  0  0  0  0  0  0
    0.6480   14.5020   19.5730 C   0  0  0  0  0  0  0  0  0  0  0  0
    1.5750   14.2950   20.1190 H   0  0  0  0  0  0  0  0  0  0  0  0
    0.5020   15.5870   19.5570 H   0  0  0  0  0  0  0  0  0  0  0  0
    0.7920   14.1690   18.5380 H   0  0  0  0  0  0  0  0  0  0  0  0
   -0.3040   13.6580   21.7520 C   0  0  0  0  0  0  0  0  0  0  0  0
   -0.0340   14.6410   22.1630 H   0  0  0  0  0  0  0  0  0  0  0  0
    0.5550   13.0070   21.9550 H   0  0  0  0  0  0  0  0  0  0  0  0
   -1.5000   13.1590   22.5020 C   0  0  0  0  0  0  0  0  0  0  0  0
   -1.8130   11.9240   23.0440 C   0  0  0  0  0  0  0  0  0  0  0  0
   -3.0790   12.1190   23.6450 C   0  0  0  0  0  0  0  0  0  0  0  0
   -3.5320   13.3650   23.5020 N   0  0  0  0  0  0  0  0  0  0  0  0
   -2.5650   13.9700   22.7940 N   0  0  0  0  0  0  0  0  0  0  0  0
   -3.6850   11.4020   24.1840 H   0  0  0  0  0  0  0  0  0  0  0  0
   -2.6950   14.9480   22.5530 H   0  0  0  0  0  0  0  0  0  0  0  0
   -1.0270   10.6700   23.0170 C   0  0  0  0  0  0  0  0  0  0  0  0
   -0.9230   10.2450   24.0200 H   0  0  0  0  0  0  0  0  0  0  0  0
   -1.5170    9.9200   22.3880 H   0  0  0  0  0  0  0  0  0  0  0  0
   -0.0280   10.8580   22.6130 H   0  0  0  0  0  0  0  0  0  0  0  0
    1.6380    5.1470   20.6580 C   0  0  0  0  0  0  0  0  0  0  0  0
    0.6400    5.9100   21.1930 F   0  0  0  0  0  0  0  0  0  0  0  0
    2.3060    4.6270   21.7310 F   0  0  0  0  0  0  0  0  0  0  0  0
    0.8860    3.7770   19.8000 Cl  0  0  0  0  0  0  0  0  0  0  0  0
  1 10  1  0  0  0  0
  2  1  2  0  0  0  0
  2  3  1  0  0  0  0
  3  4  2  0  0  0  0
  4  5  1  0  0  0  0
  4  9  1  0  0  0  0
  5 12  1  0  0  0  0
  6 34  1  0  0  0  0
  6  5  1  0  0  0  0
  7  3  1  0  0  0  0
  7  6  1  0  0  0  0
  8  7  2  0  0  0  0
  9 64  1  0  0  0  0
 10 14  1  0  0  0  0
 10  9  2  0  0  0  0
 11  2  1  0  0  0  0
 13  5  1  0  0  0  0
 15 22  1  1  0  0  0
 15 19  1  0  0  0  0
 16 17  1  0  0  0  0
 16 15  1  0  0  0  0
 17 25  1  6  0  0  0
 17 32  1  0  0  0  0
 17 18  1  0  0  0  0
 18 19  1  0  0  0  0
 18 27  1  0  0  0  0
 19 20  1  0  0  0  0
 20  1  1  0  0  0  0
 20 21  2  0  0  0  0
 23 16  1  0  0  0  0
 24 16  1  0  0  0  0
 26 18  1  0  0  0  0
 28 15  1  0  0  0  0
 28 30  1  0  0  0  0
 29 28  1  0  0  0  0
 31 28  1  0  0  0  0
 32 33  1  0  0  0  0
 34 39  1  0  0  0  0
 35 36  1  0  0  0  0
 35 34  2  0  0  0  0
 36 37  2  0  0  0  0
 37 42  1  0  0  0  0
 37 38  1  0  0  0  0
 38 44  1  0  0  0  0
 39 38  2  0  0  0  0
 39 43  1  0  0  0  0
 40 35  1  0  0  0  0
 41 36  1  0  0  0  0
 44 45  1  6  0  0  0
 44 50  1  0  0  0  0
 46 47  1  0  0  0  0
 46 44  1  0  0  0  0
 48 46  1  0  0  0  0
 49 46  1  0  0  0  0
 50 52  1  0  0  0  0
 50 51  1  0  0  0  0
 50 53  1  0  0  0  0
 53 57  1  0  0  0  0
 53 54  2  0  0  0  0
 54 55  1  0  0  0  0
 55 58  1  0  0  0  0
 56 55  2  0  0  0  0
 57 56  1  0  0  0  0
 59 57  1  0  0  0  0
 60 54  1  0  0  0  0
 60 61  1  0  0  0  0
 62 60  1  0  0  0  0
 63 60  1  0  0  0  0
 64 65  1  0  0  0  0
 64 66  1  0  0  0  0
 67 64  1  0  0  0  0
M  END
>  <MODEL>
18

>  <REMARK>
 VINA RESULT:    -8.044      2.447      3.630
 INTER + INTRA:         -10.823
 INTER:                  -9.852
 INTRA:                  -0.971
 UNBOUND:                 0.984
  Name = 
  10 active torsions:
  status: ('A' for Active; 'I' for Inactive)
    1  A    between atoms: C_1  and  C_2
    2  A    between atoms: C_4  and  O_38
    3  A    between atoms: C_7  and  C_9
    4  A    between atoms: N_14  and  C_17
    5  A    between atoms: C_21  and  C_23
    6  A    between atoms: C_23  and  C_24
    7  A    between atoms: C_23  and  C_25
    8  A    between atoms: C_25  and  C_26
    9  A    between atoms: C_27  and  C_31
   10  A    between atoms: C_32  and  C_34
                            x       y       z     vdW  Elec       q    Type
                         _______ _______ _______ _____ _____    ______ ____

>  <TORSDO>
F 10

$$$$
=
 OpenBabel07192307433D

 67 71  0  0  1  0  0  0  0  0999 V2000
    0.1060   12.0500   19.8910 C   0  0  0  0  0  0  0  0  0  0  0  0
    0.8040   11.3730   18.8900 C   0  0  0  0  0  0  0  0  0  0  0  0
    1.1550   10.0650   19.1530 C   0  0  0  0  0  0  0  0  0  0  0  0
    0.8120    9.4090   20.3370 C   0  0  0  0  0  0  0  0  0  0  0  0
    1.3500    8.0140   20.2940 C   0  0  0  0  0  0  0  0  0  0  0  0
    2.0420    7.9440   19.0150 N   0  0  0  0  0  0  0  0  0  0  0  0
    1.9540    9.1560   18.3230 C   0  0  0  0  0  0  0  0  0  0  0  0
    2.4250    9.5110   17.2600 O   0  0  0  0  0  0  0  0  0  0  0  0
    0.0840   10.0570   21.3440 C   0  0  0  0  0  0  0  0  0  0  0  0
   -0.2570   11.4050   21.0960 C   0  0  0  0  0  0  0  0  0  0  0  0
    1.0750   11.8520   17.9540 H   0  0  0  0  0  0  0  0  0  0  0  0
    0.5320    7.2850   20.3080 H   0  0  0  0  0  0  0  0  0  0  0  0
    2.0630    7.8460   21.1090 H   0  0  0  0  0  0  0  0  0  0  0  0
   -0.8160   11.9830   21.8360 H   0  0  0  0  0  0  0  0  0  0  0  0
   -1.7690   13.5590   21.7710 C   0  0  1  0  0  0  0  0  0  0  0  0
   -2.7820   14.6420   22.1880 C   0  0  0  0  0  0  0  0  0  0  0  0
   -3.2000   15.2670   20.8650 C   0  0  1  0  0  0  0  0  0  0  0  0
   -1.8900   15.2640   20.0750 C   0  0  0  0  0  0  0  0  0  0  0  0
   -1.2270   14.0370   20.4900 N   0  0  0  0  0  0  0  0  0  0  0  0
   -0.3190   13.4400   19.6380 C   0  0  0  0  0  0  0  0  0  0  0  0
    0.1320   13.9920   18.6380 O   0  0  0  0  0  0  0  0  0  0  0  0
   -2.2940   12.6170   21.5920 H   0  0  0  0  0  0  0  0  0  0  0  0
   -2.3070   15.4040   22.8210 H   0  0  0  0  0  0  0  0  0  0  0  0
   -3.6200   14.2090   22.7440 H   0  0  0  0  0  0  0  0  0  0  0  0
   -3.6260   16.2690   20.9740 H   0  0  0  0  0  0  0  0  0  0  0  0
   -1.2430   16.0990   20.3650 H   0  0  0  0  0  0  0  0  0  0  0  0
   -2.0480   15.2740   18.9910 H   0  0  0  0  0  0  0  0  0  0  0  0
   -0.7100   13.3730   22.8540 C   0  0  0  0  0  0  0  0  0  0  0  0
   -0.5160   12.3100   23.0420 H   0  0  0  0  0  0  0  0  0  0  0  0
   -1.0100   13.8190   23.8050 H   0  0  0  0  0  0  0  0  0  0  0  0
    0.2320   13.8440   22.5500 H   0  0  0  0  0  0  0  0  0  0  0  0
   -4.1850   14.4310   20.2540 O   0  0  0  0  0  0  0  0  0  0  0  0
   -3.8140   14.1110   19.4110 H   0  0  0  0  0  0  0  0  0  0  0  0
    2.7180    6.7690   18.5860 C   0  0  0  0  0  0  0  0  0  0  0  0
    2.3190    5.5030   19.0440 C   0  0  0  0  0  0  0  0  0  0  0  0
    2.9580    4.3400   18.6060 C   0  0  0  0  0  0  0  0  0  0  0  0
    4.0140    4.4160   17.7030 C   0  0  0  0  0  0  0  0  0  0  0  0
    4.4500    5.6590   17.2360 C   0  0  0  0  0  0  0  0  0  0  0  0
    3.7920    6.8210   17.6870 C   0  0  0  0  0  0  0  0  0  0  0  0
    1.4970    5.3790   19.7420 H   0  0  0  0  0  0  0  0  0  0  0  0
    2.6230    3.3700   18.9670 H   0  0  0  0  0  0  0  0  0  0  0  0
    4.4900    3.4960   17.3710 H   0  0  0  0  0  0  0  0  0  0  0  0
    4.1470    7.7760   17.3120 H   0  0  0  0  0  0  0  0  0  0  0  0
    5.5890    5.7890   16.2330 C   0  0  2  0  0  0  0  0  0  0  0  0
    6.4640    6.1990   16.7550 H   0  0  0  0  0  0  0  0  0  0  0  0
    5.2150    6.8000   15.1420 C   0  0  0  0  0  0  0  0  0  0  0  0
    6.1060    7.3110   14.7620 H   0  0  0  0  0  0  0  0  0  0  0  0
    4.5290    7.5610   15.5290 H   0  0  0  0  0  0  0  0  0  0  0  0
    4.7260    6.3120   14.2890 H   0  0  0  0  0  0  0  0  0  0  0  0
    6.0110    4.4480   15.5920 C   0  0  0  0  0  0  0  0  0  0  0  0
    5.1150    3.8400   15.4080 H   0  0  0  0  0  0  0  0  0  0  0  0
    6.6280    3.8620   16.2840 H   0  0  0  0  0  0  0  0  0  0  0  0
    6.7320    4.6100   14.2900 C   0  0  0  0  0  0  0  0  0  0  0  0
    6.4580    4.1620   13.0080 C   0  0  0  0  0  0  0  0  0  0  0  0
    7.5170    4.6790   12.2260 C   0  0  0  0  0  0  0  0  0  0  0  0
    8.3860    5.3940   12.9400 N   0  0  0  0  0  0  0  0  0  0  0  0
    7.8980    5.3240   14.1890 N   0  0  0  0  0  0  0  0  0  0  0  0
    7.6840    4.5650   11.1620 H   0  0  0  0  0  0  0  0  0  0  0  0
    8.4090    5.8000   14.9260 H   0  0  0  0  0  0  0  0  0  0  0  0
    5.3270    3.3330   12.5360 C   0  0  0  0  0  0  0  0  0  0  0  0
    5.4820    3.0000   11.5050 H   0  0  0  0  0  0  0  0  0  0  0  0
    5.2160    2.4400   13.1600 H   0  0  0  0  0  0  0  0  0  0  0  0
    4.3940    3.9020   12.5820 H   0  0  0  0  0  0  0  0  0  0  0  0
   -0.2160    9.3430   22.6470 C   0  0  0  0  0  0  0  0  0  0  0  0
    0.9290    9.1540   23.3670 F   0  0  0  0  0  0  0  0  0  0  0  0
   -0.7170    8.0890   22.4360 F   0  0  0  0  0  0  0  0  0  0  0  0
   -1.3850   10.2030   23.6830 Cl  0  0  0  0  0  0  0  0  0  0  0  0
  1 10  1  0  0  0  0
  2  3  1  0  0  0  0
  2  1  2  0  0  0  0
  3  4  2  0  0  0  0
  4  9  1  0  0  0  0
  5 12  1  0  0  0  0
  5  4  1  0  0  0  0
  5 13  1  0  0  0  0
  6  5  1  0  0  0  0
  7  6  1  0  0  0  0
  7  3  1  0  0  0  0
  8  7  2  0  0  0  0
  9 64  1  0  0  0  0
 10  9  2  0  0  0  0
 10 14  1  0  0  0  0
 11  2  1  0  0  0  0
 15 22  1  6  0  0  0
 15 16  1  0  0  0  0
 15 28  1  0  0  0  0
 16 24  1  0  0  0  0
 16 23  1  0  0  0  0
 17 25  1  1  0  0  0
 17 16  1  0  0  0  0
 18 26  1  0  0  0  0
 18 19  1  0  0  0  0
 18 17  1  0  0  0  0
 19 15  1  0  0  0  0
 20  1  1  0  0  0  0
 20 19  1  0  0  0  0
 21 20  2  0  0  0  0
 27 18  1  0  0  0  0
 28 29  1  0  0  0  0
 28 30  1  0  0  0  0
 31 28  1  0  0  0  0
 32 17  1  0  0  0  0
 33 32  1  0  0  0  0
 34  6  1  0  0  0  0
 34 35  1  0  0  0  0
 35 40  1  0  0  0  0
 36 41  1  0  0  0  0
 36 35  2  0  0  0  0
 37 36  1  0  0  0  0
 38 39  1  0  0  0  0
 38 37  2  0  0  0  0
 39 34  2  0  0  0  0
 42 37  1  0  0  0  0
 43 39  1  0  0  0  0
 44 45  1  1  0  0  0
 44 38  1  0  0  0  0
 46 48  1  0  0  0  0
 46 44  1  0  0  0  0
 47 46  1  0  0  0  0
 49 46  1  0  0  0  0
 50 44  1  0  0  0  0
 50 52  1  0  0  0  0
 51 50  1  0  0  0  0
 53 50  1  0  0  0  0
 54 53  2  0  0  0  0
 55 56  2  0  0  0  0
 55 54  1  0  0  0  0
 56 57  1  0  0  0  0
 57 53  1  0  0  0  0
 57 59  1  0  0  0  0
 58 55  1  0  0  0  0
 60 63  1  0  0  0  0
 60 54  1  0  0  0  0
 60 62  1  0  0  0  0
 61 60  1  0  0  0  0
 64 65  1  0  0  0  0
 64 67  1  0  0  0  0
 66 64  1  0  0  0  0
M  END
>  <MODEL>
19

>  <REMARK>
 VINA RESULT:    -7.876      3.435      9.900
 INTER + INTRA:         -10.576
 INTER:                 -11.519
 INTRA:                   0.943
 UNBOUND:                 0.984
  Name = 
  10 active torsions:
  status: ('A' for Active; 'I' for Inactive)
    1  A    between atoms: C_1  and  C_2
    2  A    between atoms: C_4  and  O_38
    3  A    between atoms: C_7  and  C_9
    4  A    between atoms: N_14  and  C_17
    5  A    between atoms: C_21  and  C_23
    6  A    between atoms: C_23  and  C_24
    7  A    between atoms: C_23  and  C_25
    8  A    between atoms: C_25  and  C_26
    9  A    between atoms: C_27  and  C_31
   10  A    between atoms: C_32  and  C_34
                            x       y       z     vdW  Elec       q    Type
                         _______ _______ _______ _____ _____    ______ ____

>  <TORSDO>
F 10

$$$$
=
 OpenBabel07192307433D

 67 71  0  0  1  0  0  0  0  0999 V2000
   -1.2970   12.4130   19.9700 C   0  0  0  0  0  0  0  0  0  0  0  0
   -0.0230   11.8620   20.1200 C   0  0  0  0  0  0  0  0  0  0  0  0
    0.2950   10.7980   19.3000 C   0  0  0  0  0  0  0  0  0  0  0  0
   -0.5780   10.2980   18.3320 C   0  0  0  0  0  0  0  0  0  0  0  0
    0.0780    9.1500   17.6320 C   0  0  0  0  0  0  0  0  0  0  0  0
    1.3680    9.0270   18.2950 N   0  0  0  0  0  0  0  0  0  0  0  0
    1.5160    9.9860   19.3020 C   0  0  0  0  0  0  0  0  0  0  0  0
    2.4130   10.1840   20.0980 O   0  0  0  0  0  0  0  0  0  0  0  0
   -1.8500   10.8550   18.1400 C   0  0  0  0  0  0  0  0  0  0  0  0
   -2.1950   11.9260   18.9920 C   0  0  0  0  0  0  0  0  0  0  0  0
    0.6810   12.2360   20.8560 H   0  0  0  0  0  0  0  0  0  0  0  0
    0.2320    9.3830   16.5720 H   0  0  0  0  0  0  0  0  0  0  0  0
   -0.4980    8.2290   17.7690 H   0  0  0  0  0  0  0  0  0  0  0  0
   -3.1730   12.4090   18.9120 H   0  0  0  0  0  0  0  0  0  0  0  0
   -2.4920   12.1130   22.7640 C   0  0  1  0  0  0  0  0  0  0  0  0
   -3.2740   12.5410   24.0210 C   0  0  0  0  0  0  0  0  0  0  0  0
   -3.9750   13.8200   23.5850 C   0  0  1  0  0  0  0  0  0  0  0  0
   -2.9230   14.4810   22.6950 C   0  0  0  0  0  0  0  0  0  0  0  0
   -2.2700   13.3650   22.0260 N   0  0  0  0  0  0  0  0  0  0  0  0
   -1.6660   13.5730   20.8020 C   0  0  0  0  0  0  0  0  0  0  0  0
   -1.4510   14.6890   20.3360 O   0  0  0  0  0  0  0  0  0  0  0  0
   -3.1160   11.4590   22.1500 H   0  0  0  0  0  0  0  0  0  0  0  0
   -2.5930   12.7600   24.8550 H   0  0  0  0  0  0  0  0  0  0  0  0
   -3.9680   11.7570   24.3420 H   0  0  0  0  0  0  0  0  0  0  0  0
   -4.2800   14.4540   24.4240 H   0  0  0  0  0  0  0  0  0  0  0  0
   -2.1600   14.9980   23.2880 H   0  0  0  0  0  0  0  0  0  0  0  0
   -3.3580   15.1720   21.9650 H   0  0  0  0  0  0  0  0  0  0  0  0
   -1.2040   11.3950   23.1560 C   0  0  0  0  0  0  0  0  0  0  0  0
   -1.4160   10.4480   23.6670 H   0  0  0  0  0  0  0  0  0  0  0  0
   -0.5860   11.9940   23.8290 H   0  0  0  0  0  0  0  0  0  0  0  0
   -0.6040   11.1760   22.2640 H   0  0  0  0  0  0  0  0  0  0  0  0
   -5.1470   13.4710   22.8460 O   0  0  0  0  0  0  0  0  0  0  0  0
   -5.3680   14.2290   22.2750 H   0  0  0  0  0  0  0  0  0  0  0  0
    2.3110    8.0250   17.9310 C   0  0  0  0  0  0  0  0  0  0  0  0
    3.5640    8.3760   17.4040 C   0  0  0  0  0  0  0  0  0  0  0  0
    4.5080    7.4010   17.0710 C   0  0  0  0  0  0  0  0  0  0  0  0
    4.2190    6.0530   17.2520 C   0  0  0  0  0  0  0  0  0  0  0  0
    2.9760    5.6630   17.7600 C   0  0  0  0  0  0  0  0  0  0  0  0
    2.0380    6.6600   18.0940 C   0  0  0  0  0  0  0  0  0  0  0  0
    3.8500    9.4120   17.2480 H   0  0  0  0  0  0  0  0  0  0  0  0
    5.4770    7.6990   16.6750 H   0  0  0  0  0  0  0  0  0  0  0  0
    4.9730    5.3130   16.9930 H   0  0  0  0  0  0  0  0  0  0  0  0
    1.0790    6.3360   18.4850 H   0  0  0  0  0  0  0  0  0  0  0  0
    2.6240    4.2000   17.9930 C   0  0  2  0  0  0  0  0  0  0  0  0
    3.4850    3.7090   18.4670 H   0  0  0  0  0  0  0  0  0  0  0  0
    2.4010    3.4930   16.6500 C   0  0  0  0  0  0  0  0  0  0  0  0
    1.6760    2.6780   16.7540 H   0  0  0  0  0  0  0  0  0  0  0  0
    3.3350    3.0650   16.2710 H   0  0  0  0  0  0  0  0  0  0  0  0
    2.0180    4.1830   15.8890 H   0  0  0  0  0  0  0  0  0  0  0  0
    1.4000    3.9900   18.9120 C   0  0  0  0  0  0  0  0  0  0  0  0
    0.6360    3.4190   18.3670 H   0  0  0  0  0  0  0  0  0  0  0  0
    0.9290    4.9500   19.1600 H   0  0  0  0  0  0  0  0  0  0  0  0
    1.7190    3.2470   20.1720 C   0  0  0  0  0  0  0  0  0  0  0  0
    2.8750    2.6340   20.6270 C   0  0  0  0  0  0  0  0  0  0  0  0
    2.5240    2.1370   21.9040 C   0  0  0  0  0  0  0  0  0  0  0  0
    1.2620    2.4090   22.2350 N   0  0  0  0  0  0  0  0  0  0  0  0
    0.7920    3.0680   21.1650 N   0  0  0  0  0  0  0  0  0  0  0  0
    3.1420    1.5900   22.6050 H   0  0  0  0  0  0  0  0  0  0  0  0
   -0.1750    3.3780   21.1850 H   0  0  0  0  0  0  0  0  0  0  0  0
    4.1870    2.5100   19.9550 C   0  0  0  0  0  0  0  0  0  0  0  0
    4.1420    2.8770   18.9240 H   0  0  0  0  0  0  0  0  0  0  0  0
    4.9480    3.0950   20.4820 H   0  0  0  0  0  0  0  0  0  0  0  0
    4.5080    1.4640   19.9390 H   0  0  0  0  0  0  0  0  0  0  0  0
   -2.8020   10.2480   17.1280 C   0  0  0  0  0  0  0  0  0  0  0  0
   -3.3340    9.0850   17.6050 F   0  0  0  0  0  0  0  0  0  0  0  0
   -2.1620    9.9010   15.9710 F   0  0  0  0  0  0  0  0  0  0  0  0
   -4.1470   11.3260   16.6740 Cl  0  0  0  0  0  0  0  0  0  0  0  0
  1  2  1  0  0  0  0
  1 20  1  0  0  0  0
  2 11  1  0  0  0  0
  3  7  1  0  0  0  0
  3  2  2  0  0  0  0
  4  3  1  0  0  0  0
  5 13  1  0  0  0  0
  5  6  1  0  0  0  0
  5  4  1  0  0  0  0
  6  7  1  0  0  0  0
  7  8  2  0  0  0  0
  9  4  2  0  0  0  0
  9 10  1  0  0  0  0
 10  1  2  0  0  0  0
 12  5  1  0  0  0  0
 14 10  1  0  0  0  0
 15 22  1  6  0  0  0
 15 28  1  0  0  0  0
 15 16  1  0  0  0  0
 16 24  1  0  0  0  0
 16 23  1  0  0  0  0
 17 16  1  0  0  0  0
 17 25  1  1  0  0  0
 18 26  1  0  0  0  0
 18 17  1  0  0  0  0
 19 18  1  0  0  0  0
 19 15  1  0  0  0  0
 20 19  1  0  0  0  0
 21 20  2  0  0  0  0
 27 18  1  0  0  0  0
 28 29  1  0  0  0  0
 28 30  1  0  0  0  0
 31 28  1  0  0  0  0
 32 17  1  0  0  0  0
 33 32  1  0  0  0  0
 34 39  1  0  0  0  0
 34  6  1  0  0  0  0
 35 34  2  0  0  0  0
 36 37  2  0  0  0  0
 36 35  1  0  0  0  0
 37 38  1  0  0  0  0
 38 44  1  0  0  0  0
 38 39  2  0  0  0  0
 39 43  1  0  0  0  0
 40 35  1  0  0  0  0
 41 36  1  0  0  0  0
 42 37  1  0  0  0  0
 44 45  1  1  0  0  0
 44 50  1  0  0  0  0
 46 47  1  0  0  0  0
 46 44  1  0  0  0  0
 48 46  1  0  0  0  0
 49 46  1  0  0  0  0
 50 52  1  0  0  0  0
 50 53  1  0  0  0  0
 51 50  1  0  0  0  0
 53 54  2  0  0  0  0
 53 57  1  0  0  0  0
 54 55  1  0  0  0  0
 55 56  2  0  0  0  0
 55 58  1  0  0  0  0
 57 59  1  0  0  0  0
 57 56  1  0  0  0  0
 60 62  1  0  0  0  0
 60 54  1  0  0  0  0
 61 60  1  0  0  0  0
 63 60  1  0  0  0  0
 64 65  1  0  0  0  0
 64  9  1  0  0  0  0
 66 64  1  0  0  0  0
 67 64  1  0  0  0  0
M  END
>  <MODEL>
20

>  <REMARK>
 VINA RESULT:    -7.809      4.287     10.168
 INTER + INTRA:         -10.477
 INTER:                  -9.462
 INTRA:                  -1.016
 UNBOUND:                 0.984
  Name = 
  10 active torsions:
  status: ('A' for Active; 'I' for Inactive)
    1  A    between atoms: C_1  and  C_2
    2  A    between atoms: C_4  and  O_38
    3  A    between atoms: C_7  and  C_9
    4  A    between atoms: N_14  and  C_17
    5  A    between atoms: C_21  and  C_23
    6  A    between atoms: C_23  and  C_24
    7  A    between atoms: C_23  and  C_25
    8  A    between atoms: C_25  and  C_26
    9  A    between atoms: C_27  and  C_31
   10  A    between atoms: C_32  and  C_34
                            x       y       z     vdW  Elec       q    Type
                         _______ _______ _______ _____ _____    ______ ____

>  <TORSDO>
F 10

$$$$
=
 OpenBabel07192307433D

 67 71  0  0  1  0  0  0  0  0999 V2000
   -0.8450   11.1100   21.5380 C   0  0  0  0  0  0  0  0  0  0  0  0
   -0.2640    9.8410   21.4990 C   0  0  0  0  0  0  0  0  0  0  0  0
    0.6490    9.6050   20.4920 C   0  0  0  0  0  0  0  0  0  0  0  0
    1.0250   10.5790   19.5650 C   0  0  0  0  0  0  0  0  0  0  0  0
    2.0230    9.9890   18.6190 C   0  0  0  0  0  0  0  0  0  0  0  0
    2.1580    8.6100   19.0660 N   0  0  0  0  0  0  0  0  0  0  0  0
    1.3400    8.3520   20.1700 C   0  0  0  0  0  0  0  0  0  0  0  0
    1.1370    7.3320   20.7990 O   0  0  0  0  0  0  0  0  0  0  0  0
    0.4810   11.8690   19.6020 C   0  0  0  0  0  0  0  0  0  0  0  0
   -0.4750   12.1130   20.6120 C   0  0  0  0  0  0  0  0  0  0  0  0
   -0.5280    9.0670   22.2130 H   0  0  0  0  0  0  0  0  0  0  0  0
    2.9880   10.5000   18.7100 H   0  0  0  0  0  0  0  0  0  0  0  0
    1.6450   10.0090   17.5910 H   0  0  0  0  0  0  0  0  0  0  0  0
   -0.9530   13.0920   20.7020 H   0  0  0  0  0  0  0  0  0  0  0  0
   -3.1010   13.1400   21.2040 C   0  0  1  0  0  0  0  0  0  0  0  0
   -4.1830   14.1380   21.6580 C   0  0  0  0  0  0  0  0  0  0  0  0
   -3.8920   14.3310   23.1390 C   0  0  1  0  0  0  0  0  0  0  0  0
   -3.4720   12.9260   23.5730 C   0  0  0  0  0  0  0  0  0  0  0  0
   -2.7510   12.3990   22.4240 N   0  0  0  0  0  0  0  0  0  0  0  0
   -1.8010   11.4160   22.6180 C   0  0  0  0  0  0  0  0  0  0  0  0
   -1.6740   10.7980   23.6720 O   0  0  0  0  0  0  0  0  0  0  0  0
   -2.2160   13.6880   20.8700 H   0  0  0  0  0  0  0  0  0  0  0  0
   -5.1890   13.7150   21.5320 H   0  0  0  0  0  0  0  0  0  0  0  0
   -4.1300   15.0690   21.0830 H   0  0  0  0  0  0  0  0  0  0  0  0
   -4.7490   14.7100   23.7040 H   0  0  0  0  0  0  0  0  0  0  0  0
   -4.3410   12.2790   23.7390 H   0  0  0  0  0  0  0  0  0  0  0  0
   -2.8360   12.9300   24.4650 H   0  0  0  0  0  0  0  0  0  0  0  0
   -3.6280   12.2560   20.0780 C   0  0  0  0  0  0  0  0  0  0  0  0
   -3.1870   12.5350   19.1130 H   0  0  0  0  0  0  0  0  0  0  0  0
   -4.7130   12.3280   19.9700 H   0  0  0  0  0  0  0  0  0  0  0  0
   -3.3850   11.2050   20.2740 H   0  0  0  0  0  0  0  0  0  0  0  0
   -2.8210   15.2670   23.2770 O   0  0  0  0  0  0  0  0  0  0  0  0
   -2.9910   15.7880   24.0830 H   0  0  0  0  0  0  0  0  0  0  0  0
    3.0180    7.6850   18.4110 C   0  0  0  0  0  0  0  0  0  0  0  0
    3.3420    7.8430   17.0540 C   0  0  0  0  0  0  0  0  0  0  0  0
    4.2080    6.9560   16.4090 C   0  0  0  0  0  0  0  0  0  0  0  0
    4.7670    5.8890   17.1050 C   0  0  0  0  0  0  0  0  0  0  0  0
    4.4560    5.6900   18.4530 C   0  0  0  0  0  0  0  0  0  0  0  0
    3.5830    6.5970   19.0870 C   0  0  0  0  0  0  0  0  0  0  0  0
    2.9430    8.6600   16.4610 H   0  0  0  0  0  0  0  0  0  0  0  0
    4.4530    7.1060   15.3590 H   0  0  0  0  0  0  0  0  0  0  0  0
    5.4460    5.2170   16.5830 H   0  0  0  0  0  0  0  0  0  0  0  0
    3.3550    6.4230   20.1350 H   0  0  0  0  0  0  0  0  0  0  0  0
    5.0600    4.5480   19.2590 C   0  0  2  0  0  0  0  0  0  0  0  0
    4.9820    4.7980   20.3260 H   0  0  0  0  0  0  0  0  0  0  0  0
    6.5570    4.4180   18.9470 C   0  0  0  0  0  0  0  0  0  0  0  0
    7.0230    3.6570   19.5820 H   0  0  0  0  0  0  0  0  0  0  0  0
    7.0780    5.3660   19.1200 H   0  0  0  0  0  0  0  0  0  0  0  0
    6.7280    4.1280   17.9030 H   0  0  0  0  0  0  0  0  0  0  0  0
    4.3540    3.1900   19.0440 C   0  0  0  0  0  0  0  0  0  0  0  0
    4.9940    2.3870   19.4350 H   0  0  0  0  0  0  0  0  0  0  0  0
    4.2350    2.9780   17.9740 H   0  0  0  0  0  0  0  0  0  0  0  0
    3.0260    3.0940   19.7260 C   0  0  0  0  0  0  0  0  0  0  0  0
    1.7370    3.3760   19.3050 C   0  0  0  0  0  0  0  0  0  0  0  0
    0.9280    3.0450   20.4170 C   0  0  0  0  0  0  0  0  0  0  0  0
    1.6340    2.5900   21.4530 N   0  0  0  0  0  0  0  0  0  0  0  0
    2.9020    2.6440   21.0150 N   0  0  0  0  0  0  0  0  0  0  0  0
   -0.1490    3.1140   20.5090 H   0  0  0  0  0  0  0  0  0  0  0  0
    3.6360    2.3460   21.6500 H   0  0  0  0  0  0  0  0  0  0  0  0
    1.2800    3.9040   18.0000 C   0  0  0  0  0  0  0  0  0  0  0  0
    2.0920    3.9040   17.2660 H   0  0  0  0  0  0  0  0  0  0  0  0
    0.4690    3.2890   17.5970 H   0  0  0  0  0  0  0  0  0  0  0  0
    0.9120    4.9280   18.1130 H   0  0  0  0  0  0  0  0  0  0  0  0
    0.8570   12.8850   18.5410 C   0  0  0  0  0  0  0  0  0  0  0  0
   -0.1520   13.0290   17.6330 F   0  0  0  0  0  0  0  0  0  0  0  0
    1.9400   12.4820   17.8110 F   0  0  0  0  0  0  0  0  0  0  0  0
    1.2430   14.4970   19.1970 Cl  0  0  0  0  0  0  0  0  0  0  0  0
  1 20  1  0  0  0  0
  2  1  1  0  0  0  0
  2 11  1  0  0  0  0
  3  2  2  0  0  0  0
  4  9  2  0  0  0  0
  4  3  1  0  0  0  0
  5 12  1  0  0  0  0
  5  6  1  0  0  0  0
  5  4  1  0  0  0  0
  6  7  1  0  0  0  0
  7  3  1  0  0  0  0
  7  8  2  0  0  0  0
  9 10  1  0  0  0  0
 10 14  1  0  0  0  0
 10  1  2  0  0  0  0
 13  5  1  0  0  0  0
 15 22  1  6  0  0  0
 15 16  1  0  0  0  0
 15 19  1  0  0  0  0
 16 17  1  0  0  0  0
 17 32  1  0  0  0  0
 17 18  1  0  0  0  0
 17 25  1  1  0  0  0
 18 26  1  0  0  0  0
 18 27  1  0  0  0  0
 19 20  1  0  0  0  0
 19 18  1  0  0  0  0
 20 21  2  0  0  0  0
 23 16  1  0  0  0  0
 24 16  1  0  0  0  0
 28 31  1  0  0  0  0
 28 15  1  0  0  0  0
 29 28  1  0  0  0  0
 30 28  1  0  0  0  0
 32 33  1  0  0  0  0
 34  6  1  0  0  0  0
 34 39  1  0  0  0  0
 35 34  2  0  0  0  0
 36 35  1  0  0  0  0
 36 37  2  0  0  0  0
 37 38  1  0  0  0  0
 38 39  2  0  0  0  0
 38 44  1  0  0  0  0
 39 43  1  0  0  0  0
 40 35  1  0  0  0  0
 41 36  1  0  0  0  0
 42 37  1  0  0  0  0
 44 45  1  1  0  0  0
 46 48  1  0  0  0  0
 46 44  1  0  0  0  0
 46 47  1  0  0  0  0
 49 46  1  0  0  0  0
 50 44  1  0  0  0  0
 50 51  1  0  0  0  0
 50 53  1  0  0  0  0
 52 50  1  0  0  0  0
 53 57  1  0  0  0  0
 54 53  2  0  0  0  0
 54 55  1  0  0  0  0
 55 58  1  0  0  0  0
 55 56  2  0  0  0  0
 57 56  1  0  0  0  0
 57 59  1  0  0  0  0
 60 63  1  0  0  0  0
 60 54  1  0  0  0  0
 61 60  1  0  0  0  0
 62 60  1  0  0  0  0
 64 67  1  0  0  0  0
 64  9  1  0  0  0  0
 65 64  1  0  0  0  0
 66 64  1  0  0  0  0
M  END
>  <MODEL>
21

>  <REMARK>
 VINA RESULT:    -7.801      4.417     10.106
 INTER + INTRA:         -10.465
 INTER:                 -10.085
 INTRA:                  -0.380
 UNBOUND:                 0.984
  Name = 
  10 active torsions:
  status: ('A' for Active; 'I' for Inactive)
    1  A    between atoms: C_1  and  C_2
    2  A    between atoms: C_4  and  O_38
    3  A    between atoms: C_7  and  C_9
    4  A    between atoms: N_14  and  C_17
    5  A    between atoms: C_21  and  C_23
    6  A    between atoms: C_23  and  C_24
    7  A    between atoms: C_23  and  C_25
    8  A    between atoms: C_25  and  C_26
    9  A    between atoms: C_27  and  C_31
   10  A    between atoms: C_32  and  C_34
                            x       y       z     vdW  Elec       q    Type
                         _______ _______ _______ _____ _____    ______ ____

>  <TORSDO>
F 10

$$$$
=
 OpenBabel07192307433D

 67 71  0  0  1  0  0  0  0  0999 V2000
    0.2740   10.6570   18.8480 C   0  0  0  0  0  0  0  0  0  0  0  0
    1.1180    9.9460   17.9940 C   0  0  0  0  0  0  0  0  0  0  0  0
    1.7390    8.8310   18.5200 C   0  0  0  0  0  0  0  0  0  0  0  0
    1.5230    8.3860   19.8260 C   0  0  0  0  0  0  0  0  0  0  0  0
    2.3500    7.1630   20.0660 C   0  0  0  0  0  0  0  0  0  0  0  0
    3.0630    6.9700   18.8120 N   0  0  0  0  0  0  0  0  0  0  0  0
    2.7280    7.9570   17.8790 C   0  0  0  0  0  0  0  0  0  0  0  0
    3.1310    8.1690   16.7530 O   0  0  0  0  0  0  0  0  0  0  0  0
    0.6550    9.0640   20.6920 C   0  0  0  0  0  0  0  0  0  0  0  0
    0.0370   10.2220   20.1730 C   0  0  0  0  0  0  0  0  0  0  0  0
    1.2970   10.2600   16.9710 H   0  0  0  0  0  0  0  0  0  0  0  0
    1.7080    6.2960   20.2590 H   0  0  0  0  0  0  0  0  0  0  0  0
    3.0670    7.3300   20.8770 H   0  0  0  0  0  0  0  0  0  0  0  0
   -0.6470   10.8120   20.7880 H   0  0  0  0  0  0  0  0  0  0  0  0
    1.1710   13.5150   19.4400 C   0  0  1  0  0  0  0  0  0  0  0  0
    1.0250   15.0420   19.5780 C   0  0  0  0  0  0  0  0  0  0  0  0
   -0.4770   15.2670   19.4850 C   0  0  1  0  0  0  0  0  0  0  0  0
   -0.8960   14.2360   18.4370 C   0  0  0  0  0  0  0  0  0  0  0  0
   -0.0200   13.1000   18.6850 N   0  0  0  0  0  0  0  0  0  0  0  0
   -0.4360   11.8350   18.3170 C   0  0  0  0  0  0  0  0  0  0  0  0
   -1.4070   11.6280   17.5940 O   0  0  0  0  0  0  0  0  0  0  0  0
    1.1280   13.0530   20.4300 H   0  0  0  0  0  0  0  0  0  0  0  0
    1.5280   15.5640   18.7520 H   0  0  0  0  0  0  0  0  0  0  0  0
    1.4570   15.3990   20.5200 H   0  0  0  0  0  0  0  0  0  0  0  0
   -0.7460   16.2900   19.2040 H   0  0  0  0  0  0  0  0  0  0  0  0
   -0.6920   14.5890   17.4200 H   0  0  0  0  0  0  0  0  0  0  0  0
   -1.9480   13.9440   18.5260 H   0  0  0  0  0  0  0  0  0  0  0  0
    2.4870   13.1640   18.7520 C   0  0  0  0  0  0  0  0  0  0  0  0
    2.3540   12.3490   18.0300 H   0  0  0  0  0  0  0  0  0  0  0  0
    3.2510   12.8420   19.4640 H   0  0  0  0  0  0  0  0  0  0  0  0
    2.8800   14.0350   18.2160 H   0  0  0  0  0  0  0  0  0  0  0  0
   -1.0610   14.9900   20.7600 O   0  0  0  0  0  0  0  0  0  0  0  0
   -0.6240   15.5660   21.4130 H   0  0  0  0  0  0  0  0  0  0  0  0
    3.9840    5.9020   18.6240 C   0  0  0  0  0  0  0  0  0  0  0  0
    5.3630    6.1050   18.7920 C   0  0  0  0  0  0  0  0  0  0  0  0
    6.2730    5.0560   18.6380 C   0  0  0  0  0  0  0  0  0  0  0  0
    5.8260    3.7810   18.3080 C   0  0  0  0  0  0  0  0  0  0  0  0
    4.4610    3.5430   18.1160 C   0  0  0  0  0  0  0  0  0  0  0  0
    3.5590    4.6120   18.2790 C   0  0  0  0  0  0  0  0  0  0  0  0
    5.7710    7.0750   19.0580 H   0  0  0  0  0  0  0  0  0  0  0  0
    7.3360    5.2360   18.7850 H   0  0  0  0  0  0  0  0  0  0  0  0
    6.5530    2.9780   18.2010 H   0  0  0  0  0  0  0  0  0  0  0  0
    2.5040    4.4060   18.1250 H   0  0  0  0  0  0  0  0  0  0  0  0
    3.9250    2.1590   17.7730 C   0  0  2  0  0  0  0  0  0  0  0  0
    4.7260    1.5910   17.2800 H   0  0  0  0  0  0  0  0  0  0  0  0
    2.7820    2.2760   16.7560 C   0  0  0  0  0  0  0  0  0  0  0  0
    1.8110    2.1470   17.2450 H   0  0  0  0  0  0  0  0  0  0  0  0
    2.8700    1.5130   15.9760 H   0  0  0  0  0  0  0  0  0  0  0  0
    2.7780    3.2570   16.2640 H   0  0  0  0  0  0  0  0  0  0  0  0
    3.4610    1.3460   19.0020 C   0  0  0  0  0  0  0  0  0  0  0  0
    4.3430    0.9470   19.5210 H   0  0  0  0  0  0  0  0  0  0  0  0
    2.8790    0.4690   18.6920 H   0  0  0  0  0  0  0  0  0  0  0  0
    2.6720    2.1510   19.9860 C   0  0  0  0  0  0  0  0  0  0  0  0
    1.3750    2.6380   19.9680 C   0  0  0  0  0  0  0  0  0  0  0  0
    1.2340    3.2940   21.2130 C   0  0  0  0  0  0  0  0  0  0  0  0
    2.3360    3.2310   21.9590 N   0  0  0  0  0  0  0  0  0  0  0  0
    3.1970    2.5480   21.1890 N   0  0  0  0  0  0  0  0  0  0  0  0
    0.3670    3.8120   21.6050 H   0  0  0  0  0  0  0  0  0  0  0  0
    4.1300    2.3770   21.5530 H   0  0  0  0  0  0  0  0  0  0  0  0
    0.3520    2.5170   18.9070 C   0  0  0  0  0  0  0  0  0  0  0  0
   -0.3860    3.3230   18.9710 H   0  0  0  0  0  0  0  0  0  0  0  0
    0.8140    2.5690   17.9160 H   0  0  0  0  0  0  0  0  0  0  0  0
   -0.1710    1.5590   18.9910 H   0  0  0  0  0  0  0  0  0  0  0  0
    0.4930    8.5990   22.1260 C   0  0  0  0  0  0  0  0  0  0  0  0
    1.7050    8.5310   22.7500 F   0  0  0  0  0  0  0  0  0  0  0  0
   -0.0160    7.3320   22.1950 F   0  0  0  0  0  0  0  0  0  0  0  0
   -0.5740    9.6420   23.1010 Cl  0  0  0  0  0  0  0  0  0  0  0  0
  1 10  1  0  0  0  0
  2  3  1  0  0  0  0
  2  1  2  0  0  0  0
  3  4  2  0  0  0  0
  4  5  1  0  0  0  0
  4  9  1  0  0  0  0
  5 12  1  0  0  0  0
  5 13  1  0  0  0  0
  6  5  1  0  0  0  0
  7  3  1  0  0  0  0
  7  6  1  0  0  0  0
  8  7  2  0  0  0  0
  9 64  1  0  0  0  0
 10  9  2  0  0  0  0
 10 14  1  0  0  0  0
 11  2  1  0  0  0  0
 15 16  1  0  0  0  0
 15 22  1  1  0  0  0
 16 24  1  0  0  0  0
 17 25  1  6  0  0  0
 17 16  1  0  0  0  0
 17 32  1  0  0  0  0
 18 27  1  0  0  0  0
 18 19  1  0  0  0  0
 18 17  1  0  0  0  0
 19 15  1  0  0  0  0
 20 19  1  0  0  0  0
 20  1  1  0  0  0  0
 21 20  2  0  0  0  0
 23 16  1  0  0  0  0
 26 18  1  0  0  0  0
 28 15  1  0  0  0  0
 28 30  1  0  0  0  0
 29 28  1  0  0  0  0
 31 28  1  0  0  0  0
 32 33  1  0  0  0  0
 34 35  1  0  0  0  0
 34  6  1  0  0  0  0
 35 40  1  0  0  0  0
 36 41  1  0  0  0  0
 36 35  2  0  0  0  0
 37 36  1  0  0  0  0
 38 39  1  0  0  0  0
 38 37  2  0  0  0  0
 39 34  2  0  0  0  0
 42 37  1  0  0  0  0
 43 39  1  0  0  0  0
 44 45  1  6  0  0  0
 44 38  1  0  0  0  0
 44 50  1  0  0  0  0
 46 47  1  0  0  0  0
 46 44  1  0  0  0  0
 48 46  1  0  0  0  0
 49 46  1  0  0  0  0
 50 51  1  0  0  0  0
 50 53  1  0  0  0  0
 52 50  1  0  0  0  0
 53 57  1  0  0  0  0
 54 53  2  0  0  0  0
 54 55  1  0  0  0  0
 55 58  1  0  0  0  0
 55 56  2  0  0  0  0
 57 59  1  0  0  0  0
 57 56  1  0  0  0  0
 60 61  1  0  0  0  0
 60 63  1  0  0  0  0
 60 54  1  0  0  0  0
 62 60  1  0  0  0  0
 64 66  1  0  0  0  0
 64 65  1  0  0  0  0
 64 67  1  0  0  0  0
M  END
>  <MODEL>
22

>  <REMARK>
 VINA RESULT:    -7.685      3.033      8.887
 INTER + INTRA:         -10.294
 INTER:                  -8.934
 INTRA:                  -1.360
 UNBOUND:                 0.984
  Name = 
  10 active torsions:
  status: ('A' for Active; 'I' for Inactive)
    1  A    between atoms: C_1  and  C_2
    2  A    between atoms: C_4  and  O_38
    3  A    between atoms: C_7  and  C_9
    4  A    between atoms: N_14  and  C_17
    5  A    between atoms: C_21  and  C_23
    6  A    between atoms: C_23  and  C_24
    7  A    between atoms: C_23  and  C_25
    8  A    between atoms: C_25  and  C_26
    9  A    between atoms: C_27  and  C_31
   10  A    between atoms: C_32  and  C_34
                            x       y       z     vdW  Elec       q    Type
                         _______ _______ _______ _____ _____    ______ ____

>  <TORSDO>
F 10

$$$$
=
 OpenBabel07192307433D

 67 71  0  0  1  0  0  0  0  0999 V2000
   -0.5800   12.4220   20.2010 C   0  0  0  0  0  0  0  0  0  0  0  0
    0.2310   11.9930   19.1490 C   0  0  0  0  0  0  0  0  0  0  0  0
    0.7900   10.7370   19.2680 C   0  0  0  0  0  0  0  0  0  0  0  0
    0.5450    9.8960   20.3550 C   0  0  0  0  0  0  0  0  0  0  0  0
    1.3060    8.6220   20.1660 C   0  0  0  0  0  0  0  0  0  0  0  0
    2.0140    8.8200   18.9090 N   0  0  0  0  0  0  0  0  0  0  0  0
    1.7360   10.0760   18.3610 C   0  0  0  0  0  0  0  0  0  0  0  0
    2.1540   10.6290   17.3630 O   0  0  0  0  0  0  0  0  0  0  0  0
   -0.2900   10.2910   21.4080 C   0  0  0  0  0  0  0  0  0  0  0  0
   -0.8450   11.5860   21.3100 C   0  0  0  0  0  0  0  0  0  0  0  0
    0.4300   12.6190   18.2860 H   0  0  0  0  0  0  0  0  0  0  0  0
    0.6190    7.7740   20.0680 H   0  0  0  0  0  0  0  0  0  0  0  0
    2.0280    8.4740   20.9770 H   0  0  0  0  0  0  0  0  0  0  0  0
   -1.5000   11.9720   22.0950 H   0  0  0  0  0  0  0  0  0  0  0  0
   -2.4980   13.4780   22.3300 C   0  0  1  0  0  0  0  0  0  0  0  0
   -3.6220   14.3570   22.9090 C   0  0  0  0  0  0  0  0  0  0  0  0
   -4.2350   15.0080   21.6770 C   0  0  1  0  0  0  0  0  0  0  0  0
   -3.0080   15.2670   20.8020 C   0  0  0  0  0  0  0  0  0  0  0  0
   -2.1390   14.1290   21.0620 N   0  0  0  0  0  0  0  0  0  0  0  0
   -1.2250   13.7450   20.1000 C   0  0  0  0  0  0  0  0  0  0  0  0
   -0.9430   14.4340   19.1240 O   0  0  0  0  0  0  0  0  0  0  0  0
   -2.8910   12.4820   22.1060 H   0  0  0  0  0  0  0  0  0  0  0  0
   -3.2160   15.1330   23.5720 H   0  0  0  0  0  0  0  0  0  0  0  0
   -4.3390   13.7590   23.4820 H   0  0  0  0  0  0  0  0  0  0  0  0
   -4.7940   15.9220   21.9020 H   0  0  0  0  0  0  0  0  0  0  0  0
   -2.4690   16.1670   21.1180 H   0  0  0  0  0  0  0  0  0  0  0  0
   -3.2530   15.3340   19.7370 H   0  0  0  0  0  0  0  0  0  0  0  0
   -1.3390   13.3750   23.3170 C   0  0  0  0  0  0  0  0  0  0  0  0
   -0.9650   12.3460   23.3870 H   0  0  0  0  0  0  0  0  0  0  0  0
   -1.6270   13.6820   24.3260 H   0  0  0  0  0  0  0  0  0  0  0  0
   -0.5100   14.0190   23.0000 H   0  0  0  0  0  0  0  0  0  0  0  0
   -5.1320   14.0790   21.0660 O   0  0  0  0  0  0  0  0  0  0  0  0
   -5.2220   14.3340   20.1290 H   0  0  0  0  0  0  0  0  0  0  0  0
    2.8790    7.8300   18.3660 C   0  0  0  0  0  0  0  0  0  0  0  0
    3.2040    7.8310   17.0000 C   0  0  0  0  0  0  0  0  0  0  0  0
    4.0760    6.8800   16.4630 C   0  0  0  0  0  0  0  0  0  0  0  0
    4.6400    5.9040   17.2770 C   0  0  0  0  0  0  0  0  0  0  0  0
    4.3280    5.8610   18.6400 C   0  0  0  0  0  0  0  0  0  0  0  0
    3.4500    6.8290   19.1640 C   0  0  0  0  0  0  0  0  0  0  0  0
    2.8030    8.5720   16.3170 H   0  0  0  0  0  0  0  0  0  0  0  0
    4.3210    6.9090   15.4030 H   0  0  0  0  0  0  0  0  0  0  0  0
    5.3220    5.1790   16.8370 H   0  0  0  0  0  0  0  0  0  0  0  0
    3.2210    6.7770   20.2240 H   0  0  0  0  0  0  0  0  0  0  0  0
    4.9360    4.8220   19.5720 C   0  0  2  0  0  0  0  0  0  0  0  0
    4.7340    5.1260   20.6080 H   0  0  0  0  0  0  0  0  0  0  0  0
    6.4620    4.8010   19.4120 C   0  0  0  0  0  0  0  0  0  0  0  0
    6.7510    5.0920   18.3960 H   0  0  0  0  0  0  0  0  0  0  0  0
    6.8640    3.8010   19.6030 H   0  0  0  0  0  0  0  0  0  0  0  0
    6.9510    5.4960   20.1070 H   0  0  0  0  0  0  0  0  0  0  0  0
    4.3640    3.3990   19.3820 C   0  0  0  0  0  0  0  0  0  0  0  0
    5.0150    2.6790   19.8960 H   0  0  0  0  0  0  0  0  0  0  0  0
    4.3820    3.1100   18.3240 H   0  0  0  0  0  0  0  0  0  0  0  0
    2.9780    3.2360   19.9230 C   0  0  0  0  0  0  0  0  0  0  0  0
    1.7270    3.4360   19.3630 C   0  0  0  0  0  0  0  0  0  0  0  0
    0.8250    3.0760   20.3920 C   0  0  0  0  0  0  0  0  0  0  0  0
    1.4420    2.6810   21.5050 N   0  0  0  0  0  0  0  0  0  0  0  0
    2.7440    2.8020   21.2020 N   0  0  0  0  0  0  0  0  0  0  0  0
   -0.2570    3.0840   20.3690 H   0  0  0  0  0  0  0  0  0  0  0  0
    3.4230    2.5580   21.9170 H   0  0  0  0  0  0  0  0  0  0  0  0
    1.3820    3.9140   18.0060 C   0  0  0  0  0  0  0  0  0  0  0  0
    2.1100    3.5680   17.2660 H   0  0  0  0  0  0  0  0  0  0  0  0
    0.3980    3.5420   17.7030 H   0  0  0  0  0  0  0  0  0  0  0  0
    1.3570    5.0080   17.9840 H   0  0  0  0  0  0  0  0  0  0  0  0
   -0.4830    9.3850   22.6090 C   0  0  0  0  0  0  0  0  0  0  0  0
   -0.9120    8.1500   22.2170 F   0  0  0  0  0  0  0  0  0  0  0  0
   -1.4570    9.8530   23.4470 F   0  0  0  0  0  0  0  0  0  0  0  0
    0.9900    9.1730   23.5900 Cl  0  0  0  0  0  0  0  0  0  0  0  0
  1 10  1  0  0  0  0
  2  3  1  0  0  0  0
  2  1  2  0  0  0  0
  3  4  2  0  0  0  0
  4  9  1  0  0  0  0
  5  4  1  0  0  0  0
  5 13  1  0  0  0  0
  6  5  1  0  0  0  0
  7  6  1  0  0  0  0
  7  3  1  0  0  0  0
  8  7  2  0  0  0  0
  9 64  1  0  0  0  0
 10  9  2  0  0  0  0
 10 14  1  0  0  0  0
 11  2  1  0  0  0  0
 12  5  1  0  0  0  0
 15 22  1  6  0  0  0
 15 16  1  0  0  0  0
 15 28  1  0  0  0  0
 16 24  1  0  0  0  0
 16 23  1  0  0  0  0
 17 25  1  1  0  0  0
 17 16  1  0  0  0  0
 18 19  1  0  0  0  0
 18 26  1  0  0  0  0
 18 17  1  0  0  0  0
 19 15  1  0  0  0  0
 20  1  1  0  0  0  0
 20 19  1  0  0  0  0
 21 20  2  0  0  0  0
 27 18  1  0  0  0  0
 28 29  1  0  0  0  0
 28 30  1  0  0  0  0
 31 28  1  0  0  0  0
 32 17  1  0  0  0  0
 33 32  1  0  0  0  0
 34  6  1  0  0  0  0
 34 39  1  0  0  0  0
 35 34  2  0  0  0  0
 36 35  1  0  0  0  0
 36 37  2  0  0  0  0
 37 38  1  0  0  0  0
 38 39  2  0  0  0  0
 38 44  1  0  0  0  0
 39 43  1  0  0  0  0
 40 35  1  0  0  0  0
 41 36  1  0  0  0  0
 42 37  1  0  0  0  0
 44 45  1  1  0  0  0
 46 44  1  0  0  0  0
 46 48  1  0  0  0  0
 46 49  1  0  0  0  0
 47 46  1  0  0  0  0
 50 44  1  0  0  0  0
 50 51  1  0  0  0  0
 50 53  1  0  0  0  0
 52 50  1  0  0  0  0
 53 57  1  0  0  0  0
 54 53  2  0  0  0  0
 54 55  1  0  0  0  0
 55 56  2  0  0  0  0
 57 56  1  0  0  0  0
 57 59  1  0  0  0  0
 58 55  1  0  0  0  0
 60 54  1  0  0  0  0
 61 60  1  0  0  0  0
 62 60  1  0  0  0  0
 63 60  1  0  0  0  0
 64 66  1  0  0  0  0
 64 67  1  0  0  0  0
 65 64  1  0  0  0  0
M  END
>  <MODEL>
23

>  <REMARK>
 VINA RESULT:    -7.590      3.642      9.703
 INTER + INTRA:         -10.155
 INTER:                 -10.128
 INTRA:                  -0.027
 UNBOUND:                 0.984
  Name = 
  10 active torsions:
  status: ('A' for Active; 'I' for Inactive)
    1  A    between atoms: C_1  and  C_2
    2  A    between atoms: C_4  and  O_38
    3  A    between atoms: C_7  and  C_9
    4  A    between atoms: N_14  and  C_17
    5  A    between atoms: C_21  and  C_23
    6  A    between atoms: C_23  and  C_24
    7  A    between atoms: C_23  and  C_25
    8  A    between atoms: C_25  and  C_26
    9  A    between atoms: C_27  and  C_31
   10  A    between atoms: C_32  and  C_34
                            x       y       z     vdW  Elec       q    Type
                         _______ _______ _______ _____ _____    ______ ____

>  <TORSDO>
F 10

$$$$
=
 OpenBabel07192307433D

 67 71  0  0  1  0  0  0  0  0999 V2000
    4.5620    6.2640   18.4540 C   0  0  0  0  0  0  0  0  0  0  0  0
    4.1230    7.5530   18.1490 C   0  0  0  0  0  0  0  0  0  0  0  0
    2.8930    7.9270   18.6500 C   0  0  0  0  0  0  0  0  0  0  0  0
    2.1170    7.0930   19.4580 C   0  0  0  0  0  0  0  0  0  0  0  0
    0.8510    7.8060   19.8180 C   0  0  0  0  0  0  0  0  0  0  0  0
    0.9630    9.0850   19.1320 N   0  0  0  0  0  0  0  0  0  0  0  0
    2.1620    9.1770   18.4190 C   0  0  0  0  0  0  0  0  0  0  0  0
    2.6020   10.0490   17.6960 O   0  0  0  0  0  0  0  0  0  0  0  0
    2.5490    5.8060   19.8040 C   0  0  0  0  0  0  0  0  0  0  0  0
    3.7940    5.4040   19.2740 C   0  0  0  0  0  0  0  0  0  0  0  0
    4.7100    8.2280   17.5330 H   0  0  0  0  0  0  0  0  0  0  0  0
    0.7990    7.9730   20.8990 H   0  0  0  0  0  0  0  0  0  0  0  0
   -0.0220    7.2610   19.4440 H   0  0  0  0  0  0  0  0  0  0  0  0
    4.1970    4.4110   19.4910 H   0  0  0  0  0  0  0  0  0  0  0  0
    5.0830    5.5510   15.5310 C   0  0  1  0  0  0  0  0  0  0  0  0
    5.8180    4.9000   14.3440 C   0  0  0  0  0  0  0  0  0  0  0  0
    6.7960    3.9440   15.0110 C   0  0  1  0  0  0  0  0  0  0  0  0
    7.2320    4.7340   16.2460 C   0  0  0  0  0  0  0  0  0  0  0  0
    6.0340    5.4570   16.6480 N   0  0  0  0  0  0  0  0  0  0  0  0
    5.8860    5.8350   17.9680 C   0  0  0  0  0  0  0  0  0  0  0  0
    6.8000    5.7950   18.7880 O   0  0  0  0  0  0  0  0  0  0  0  0
    4.1990    4.9590   15.7820 H   0  0  0  0  0  0  0  0  0  0  0  0
    6.3730    5.6500   13.7630 H   0  0  0  0  0  0  0  0  0  0  0  0
    5.1160    4.3980   13.6690 H   0  0  0  0  0  0  0  0  0  0  0  0
    7.6370    3.6660   14.3690 H   0  0  0  0  0  0  0  0  0  0  0  0
    7.9950    5.4810   15.9980 H   0  0  0  0  0  0  0  0  0  0  0  0
    7.5900    4.0910   17.0560 H   0  0  0  0  0  0  0  0  0  0  0  0
    4.6780    6.9820   15.1890 C   0  0  0  0  0  0  0  0  0  0  0  0
    4.8270    7.6530   16.0430 H   0  0  0  0  0  0  0  0  0  0  0  0
    3.6260    7.0560   14.9000 H   0  0  0  0  0  0  0  0  0  0  0  0
    5.2770    7.3570   14.3500 H   0  0  0  0  0  0  0  0  0  0  0  0
    6.0970    2.7510   15.3700 O   0  0  0  0  0  0  0  0  0  0  0  0
    5.6200    2.4430   14.5780 H   0  0  0  0  0  0  0  0  0  0  0  0
   -0.0600   10.0720   19.2050 C   0  0  0  0  0  0  0  0  0  0  0  0
   -0.9380   10.2760   18.1290 C   0  0  0  0  0  0  0  0  0  0  0  0
   -1.9640   11.2220   18.2020 C   0  0  0  0  0  0  0  0  0  0  0  0
   -2.1330   11.9890   19.3500 C   0  0  0  0  0  0  0  0  0  0  0  0
   -1.2680   11.8250   20.4370 C   0  0  0  0  0  0  0  0  0  0  0  0
   -0.2420   10.8640   20.3460 C   0  0  0  0  0  0  0  0  0  0  0  0
   -0.8620    9.7030   17.2110 H   0  0  0  0  0  0  0  0  0  0  0  0
   -2.6390   11.3540   17.3590 H   0  0  0  0  0  0  0  0  0  0  0  0
   -2.9440   12.7140   19.3860 H   0  0  0  0  0  0  0  0  0  0  0  0
    0.4190   10.7540   21.2010 H   0  0  0  0  0  0  0  0  0  0  0  0
   -1.4270   12.6290   21.7210 C   0  0  2  0  0  0  0  0  0  0  0  0
   -0.6990   12.2560   22.4540 H   0  0  0  0  0  0  0  0  0  0  0  0
   -2.8180   12.3890   22.3220 C   0  0  0  0  0  0  0  0  0  0  0  0
   -2.8330   11.4680   22.9150 H   0  0  0  0  0  0  0  0  0  0  0  0
   -3.5750   12.2960   21.5360 H   0  0  0  0  0  0  0  0  0  0  0  0
   -3.1200   13.2130   22.9810 H   0  0  0  0  0  0  0  0  0  0  0  0
   -1.1790   14.1440   21.5440 C   0  0  0  0  0  0  0  0  0  0  0  0
   -1.3230   14.6460   22.5110 H   0  0  0  0  0  0  0  0  0  0  0  0
   -1.9230   14.5850   20.8700 H   0  0  0  0  0  0  0  0  0  0  0  0
    0.1980   14.4710   21.0560 C   0  0  0  0  0  0  0  0  0  0  0  0
    0.6910   14.7980   19.8040 C   0  0  0  0  0  0  0  0  0  0  0  0
    2.0720   15.0170   20.0220 C   0  0  0  0  0  0  0  0  0  0  0  0
    2.4270   14.8480   21.2950 N   0  0  0  0  0  0  0  0  0  0  0  0
    1.2790   14.5020   21.8980 N   0  0  0  0  0  0  0  0  0  0  0  0
    2.8290   15.2980   19.3010 H   0  0  0  0  0  0  0  0  0  0  0  0
    1.3040   14.3120   22.8950 H   0  0  0  0  0  0  0  0  0  0  0  0
   -0.0330   14.9020   18.5180 C   0  0  0  0  0  0  0  0  0  0  0  0
   -0.0300   13.9480   17.9820 H   0  0  0  0  0  0  0  0  0  0  0  0
   -1.0770   15.1870   18.6840 H   0  0  0  0  0  0  0  0  0  0  0  0
    0.4320   15.6610   17.8810 H   0  0  0  0  0  0  0  0  0  0  0  0
    1.6550    4.8980   20.6260 C   0  0  0  0  0  0  0  0  0  0  0  0
    0.5780    5.5870   21.1040 F   0  0  0  0  0  0  0  0  0  0  0  0
    2.2960    4.4220   21.7350 F   0  0  0  0  0  0  0  0  0  0  0  0
    1.0510    3.4820   19.7260 Cl  0  0  0  0  0  0  0  0  0  0  0  0
  1 10  1  0  0  0  0
  2  1  2  0  0  0  0
  2  3  1  0  0  0  0
  3  4  2  0  0  0  0
  4  9  1  0  0  0  0
  4  5  1  0  0  0  0
  5 12  1  0  0  0  0
  6 34  1  0  0  0  0
  6  5  1  0  0  0  0
  7  3  1  0  0  0  0
  7  6  1  0  0  0  0
  8  7  2  0  0  0  0
  9 64  1  0  0  0  0
 10 14  1  0  0  0  0
 10  9  2  0  0  0  0
 11  2  1  0  0  0  0
 13  5  1  0  0  0  0
 15 22  1  1  0  0  0
 15 19  1  0  0  0  0
 16 17  1  0  0  0  0
 16 15  1  0  0  0  0
 17 25  1  6  0  0  0
 17 32  1  0  0  0  0
 17 18  1  0  0  0  0
 18 19  1  0  0  0  0
 18 27  1  0  0  0  0
 19 20  1  0  0  0  0
 20  1  1  0  0  0  0
 20 21  2  0  0  0  0
 23 16  1  0  0  0  0
 24 16  1  0  0  0  0
 26 18  1  0  0  0  0
 28 15  1  0  0  0  0
 28 29  1  0  0  0  0
 30 28  1  0  0  0  0
 31 28  1  0  0  0  0
 33 32  1  0  0  0  0
 34 39  1  0  0  0  0
 35 36  1  0  0  0  0
 35 34  2  0  0  0  0
 36 37  2  0  0  0  0
 37 42  1  0  0  0  0
 37 38  1  0  0  0  0
 38 44  1  0  0  0  0
 39 38  2  0  0  0  0
 39 43  1  0  0  0  0
 40 35  1  0  0  0  0
 41 36  1  0  0  0  0
 44 46  1  0  0  0  0
 44 45  1  1  0  0  0
 46 47  1  0  0  0  0
 46 49  1  0  0  0  0
 48 46  1  0  0  0  0
 50 44  1  0  0  0  0
 50 51  1  0  0  0  0
 52 50  1  0  0  0  0
 53 50  1  0  0  0  0
 53 57  1  0  0  0  0
 54 55  1  0  0  0  0
 54 53  2  0  0  0  0
 55 56  2  0  0  0  0
 56 57  1  0  0  0  0
 57 59  1  0  0  0  0
 58 55  1  0  0  0  0
 60 62  1  0  0  0  0
 60 54  1  0  0  0  0
 61 60  1  0  0  0  0
 63 60  1  0  0  0  0
 64 65  1  0  0  0  0
 64 66  1  0  0  0  0
 67 64  1  0  0  0  0
M  END
>  <MODEL>
24

>  <REMARK>
 VINA RESULT:    -7.547      2.436      3.721
 INTER + INTRA:         -10.092
 INTER:                  -9.032
 INTRA:                  -1.060
 UNBOUND:                 0.984
  Name = 
  10 active torsions:
  status: ('A' for Active; 'I' for Inactive)
    1  A    between atoms: C_1  and  C_2
    2  A    between atoms: C_4  and  O_38
    3  A    between atoms: C_7  and  C_9
    4  A    between atoms: N_14  and  C_17
    5  A    between atoms: C_21  and  C_23
    6  A    between atoms: C_23  and  C_24
    7  A    between atoms: C_23  and  C_25
    8  A    between atoms: C_25  and  C_26
    9  A    between atoms: C_27  and  C_31
   10  A    between atoms: C_32  and  C_34
                            x       y       z     vdW  Elec       q    Type
                         _______ _______ _______ _____ _____    ______ ____

>  <TORSDO>
F 10

$$$$
=
 OpenBabel07192307433D

 67 71  0  0  1  0  0  0  0  0999 V2000
   -0.3810   10.4650   18.5600 C   0  0  0  0  0  0  0  0  0  0  0  0
    0.4680    9.6760   17.7820 C   0  0  0  0  0  0  0  0  0  0  0  0
    1.2300    8.7380   18.4480 C   0  0  0  0  0  0  0  0  0  0  0  0
    1.1500    8.5360   19.8280 C   0  0  0  0  0  0  0  0  0  0  0  0
    2.1080    7.4540   20.2170 C   0  0  0  0  0  0  0  0  0  0  0  0
    2.7470    7.0840   18.9620 N   0  0  0  0  0  0  0  0  0  0  0  0
    2.2530    7.8440   17.8960 C   0  0  0  0  0  0  0  0  0  0  0  0
    2.5540    7.8680   16.7190 O   0  0  0  0  0  0  0  0  0  0  0  0
    0.2830    9.2930   20.6260 C   0  0  0  0  0  0  0  0  0  0  0  0
   -0.4810   10.2740   19.9580 C   0  0  0  0  0  0  0  0  0  0  0  0
    0.5430    9.8020   16.7060 H   0  0  0  0  0  0  0  0  0  0  0  0
    1.5690    6.5900   20.6210 H   0  0  0  0  0  0  0  0  0  0  0  0
    2.8600    7.8320   20.9170 H   0  0  0  0  0  0  0  0  0  0  0  0
   -1.1750   10.9120   20.5110 H   0  0  0  0  0  0  0  0  0  0  0  0
   -2.9430    9.6880   17.0900 C   0  0  1  0  0  0  0  0  0  0  0  0
   -4.1030    9.8500   16.0900 C   0  0  0  0  0  0  0  0  0  0  0  0
   -3.6710   11.0300   15.2310 C   0  0  1  0  0  0  0  0  0  0  0  0
   -2.9940   11.9450   16.2530 C   0  0  0  0  0  0  0  0  0  0  0  0
   -2.3430   11.0280   17.1760 N   0  0  0  0  0  0  0  0  0  0  0  0
   -1.2380   11.4570   17.8850 C   0  0  0  0  0  0  0  0  0  0  0  0
   -0.8950   12.6340   17.9530 O   0  0  0  0  0  0  0  0  0  0  0  0
   -2.1970    9.0040   16.6780 H   0  0  0  0  0  0  0  0  0  0  0  0
   -5.0400   10.0940   16.6070 H   0  0  0  0  0  0  0  0  0  0  0  0
   -4.2600    8.9320   15.5130 H   0  0  0  0  0  0  0  0  0  0  0  0
   -4.5030   11.5170   14.7130 H   0  0  0  0  0  0  0  0  0  0  0  0
   -3.7300   12.5200   16.8280 H   0  0  0  0  0  0  0  0  0  0  0  0
   -2.2650   12.6230   15.7980 H   0  0  0  0  0  0  0  0  0  0  0  0
   -3.4590    9.1600   18.4260 C   0  0  0  0  0  0  0  0  0  0  0  0
   -2.9730    9.6670   19.2690 H   0  0  0  0  0  0  0  0  0  0  0  0
   -3.2760    8.0890   18.5450 H   0  0  0  0  0  0  0  0  0  0  0  0
   -4.5400    9.3220   18.5070 H   0  0  0  0  0  0  0  0  0  0  0  0
   -2.7460   10.5660   14.2460 O   0  0  0  0  0  0  0  0  0  0  0  0
   -3.1880    9.8610   13.7390 H   0  0  0  0  0  0  0  0  0  0  0  0
    3.7530    6.0810   18.8940 C   0  0  0  0  0  0  0  0  0  0  0  0
    5.0640    6.3480   19.3180 C   0  0  0  0  0  0  0  0  0  0  0  0
    6.0530    5.3600   19.2840 C   0  0  0  0  0  0  0  0  0  0  0  0
    5.7530    4.0840   18.8200 C   0  0  0  0  0  0  0  0  0  0  0  0
    4.4620    3.7830   18.3740 C   0  0  0  0  0  0  0  0  0  0  0  0
    3.4790    4.7910   18.4200 C   0  0  0  0  0  0  0  0  0  0  0  0
    5.3560    7.3220   19.6980 H   0  0  0  0  0  0  0  0  0  0  0  0
    7.0590    5.5890   19.6280 H   0  0  0  0  0  0  0  0  0  0  0  0
    6.5370    3.3290   18.8100 H   0  0  0  0  0  0  0  0  0  0  0  0
    2.4830    4.5360   18.0690 H   0  0  0  0  0  0  0  0  0  0  0  0
    4.0850    2.3940   17.8770 C   0  0  2  0  0  0  0  0  0  0  0  0
    4.9790    1.9300   17.4370 H   0  0  0  0  0  0  0  0  0  0  0  0
    3.0490    2.5030   16.7510 C   0  0  0  0  0  0  0  0  0  0  0  0
    2.0460    2.2610   17.1190 H   0  0  0  0  0  0  0  0  0  0  0  0
    3.2820    1.8130   15.9330 H   0  0  0  0  0  0  0  0  0  0  0  0
    3.0120    3.5160   16.3320 H   0  0  0  0  0  0  0  0  0  0  0  0
    3.5660    1.4530   18.9860 C   0  0  0  0  0  0  0  0  0  0  0  0
    4.4240    1.0020   19.5050 H   0  0  0  0  0  0  0  0  0  0  0  0
    3.0080    0.6120   18.5560 H   0  0  0  0  0  0  0  0  0  0  0  0
    2.7210    2.1450   20.0100 C   0  0  0  0  0  0  0  0  0  0  0  0
    1.3980    2.5550   20.0060 C   0  0  0  0  0  0  0  0  0  0  0  0
    1.2060    3.1210   21.2880 C   0  0  0  0  0  0  0  0  0  0  0  0
    2.3040    3.0740   22.0430 N   0  0  0  0  0  0  0  0  0  0  0  0
    3.2110    2.4930   21.2420 N   0  0  0  0  0  0  0  0  0  0  0  0
    0.3070    3.5610   21.7000 H   0  0  0  0  0  0  0  0  0  0  0  0
    4.1480    2.3540   21.6070 H   0  0  0  0  0  0  0  0  0  0  0  0
    0.3940    2.4430   18.9250 C   0  0  0  0  0  0  0  0  0  0  0  0
   -0.5270    1.9750   19.2850 H   0  0  0  0  0  0  0  0  0  0  0  0
    0.1330    3.4320   18.5350 H   0  0  0  0  0  0  0  0  0  0  0  0
    0.7900    1.8430   18.1000 H   0  0  0  0  0  0  0  0  0  0  0  0
    0.2670    9.0990   22.1300 C   0  0  0  0  0  0  0  0  0  0  0  0
    1.5400    9.0430   22.6210 F   0  0  0  0  0  0  0  0  0  0  0  0
   -0.3050    7.9080   22.4830 F   0  0  0  0  0  0  0  0  0  0  0  0
   -0.6090   10.3780   23.0080 Cl  0  0  0  0  0  0  0  0  0  0  0  0
  1 10  1  0  0  0  0
  2  3  1  0  0  0  0
  2  1  2  0  0  0  0
  3  4  2  0  0  0  0
  4  5  1  0  0  0  0
  4  9  1  0  0  0  0
  5 12  1  0  0  0  0
  5 13  1  0  0  0  0
  6  5  1  0  0  0  0
  7  3  1  0  0  0  0
  7  6  1  0  0  0  0
  8  7  2  0  0  0  0
  9 64  1  0  0  0  0
 10 14  1  0  0  0  0
 10  9  2  0  0  0  0
 11  2  1  0  0  0  0
 15 22  1  6  0  0  0
 15 19  1  0  0  0  0
 15 28  1  0  0  0  0
 16 23  1  0  0  0  0
 16 15  1  0  0  0  0
 17 25  1  6  0  0  0
 17 16  1  0  0  0  0
 17 18  1  0  0  0  0
 18 26  1  0  0  0  0
 18 19  1  0  0  0  0
 19 20  1  0  0  0  0
 20 21  2  0  0  0  0
 20  1  1  0  0  0  0
 24 16  1  0  0  0  0
 27 18  1  0  0  0  0
 28 31  1  0  0  0  0
 28 30  1  0  0  0  0
 28 29  1  0  0  0  0
 32 17  1  0  0  0  0
 33 32  1  0  0  0  0
 34  6  1  0  0  0  0
 34 35  1  0  0  0  0
 35 40  1  0  0  0  0
 36 35  2  0  0  0  0
 36 41  1  0  0  0  0
 37 36  1  0  0  0  0
 38 39  1  0  0  0  0
 38 37  2  0  0  0  0
 39 34  2  0  0  0  0
 42 37  1  0  0  0  0
 43 39  1  0  0  0  0
 44 45  1  6  0  0  0
 44 38  1  0  0  0  0
 44 50  1  0  0  0  0
 46 47  1  0  0  0  0
 46 44  1  0  0  0  0
 48 46  1  0  0  0  0
 49 46  1  0  0  0  0
 50 51  1  0  0  0  0
 50 53  1  0  0  0  0
 52 50  1  0  0  0  0
 53 57  1  0  0  0  0
 54 53  2  0  0  0  0
 54 55  1  0  0  0  0
 55 58  1  0  0  0  0
 55 56  2  0  0  0  0
 57 59  1  0  0  0  0
 57 56  1  0  0  0  0
 60 61  1  0  0  0  0
 60 54  1  0  0  0  0
 62 60  1  0  0  0  0
 63 60  1  0  0  0  0
 64 66  1  0  0  0  0
 64 65  1  0  0  0  0
 64 67  1  0  0  0  0
M  END
>  <MODEL>
25

>  <REMARK>
 VINA RESULT:    -7.463      2.962      8.801
 INTER + INTRA:          -9.969
 INTER:                  -8.475
 INTRA:                  -1.493
 UNBOUND:                 0.984
  Name = 
  10 active torsions:
  status: ('A' for Active; 'I' for Inactive)
    1  A    between atoms: C_1  and  C_2
    2  A    between atoms: C_4  and  O_38
    3  A    between atoms: C_7  and  C_9
    4  A    between atoms: N_14  and  C_17
    5  A    between atoms: C_21  and  C_23
    6  A    between atoms: C_23  and  C_24
    7  A    between atoms: C_23  and  C_25
    8  A    between atoms: C_25  and  C_26
    9  A    between atoms: C_27  and  C_31
   10  A    between atoms: C_32  and  C_34
                            x       y       z     vdW  Elec       q    Type
                         _______ _______ _______ _____ _____    ______ ____

>  <TORSDO>
F 10

$$$$
=
 OpenBabel07192307433D

 67 71  0  0  1  0  0  0  0  0999 V2000
   -2.1140   12.9650   20.4980 C   0  0  0  0  0  0  0  0  0  0  0  0
   -1.8990   11.5870   20.4490 C   0  0  0  0  0  0  0  0  0  0  0  0
   -0.7000   11.1620   19.9160 C   0  0  0  0  0  0  0  0  0  0  0  0
    0.2890   12.0430   19.4730 C   0  0  0  0  0  0  0  0  0  0  0  0
    1.4490   11.2520   18.9550 C   0  0  0  0  0  0  0  0  0  0  0  0
    1.0280    9.8680   19.1140 N   0  0  0  0  0  0  0  0  0  0  0  0
   -0.2530    9.7860   19.6700 C   0  0  0  0  0  0  0  0  0  0  0  0
   -0.9630    8.8320   19.9170 O   0  0  0  0  0  0  0  0  0  0  0  0
    0.1110   13.4310   19.5410 C   0  0  0  0  0  0  0  0  0  0  0  0
   -1.1240   13.8760   20.0600 C   0  0  0  0  0  0  0  0  0  0  0  0
   -2.6440   10.8770   20.7960 H   0  0  0  0  0  0  0  0  0  0  0  0
    2.3420   11.4350   19.5630 H   0  0  0  0  0  0  0  0  0  0  0  0
    1.6230   11.4660   17.8950 H   0  0  0  0  0  0  0  0  0  0  0  0
   -1.3440   14.9440   20.1370 H   0  0  0  0  0  0  0  0  0  0  0  0
   -2.4320   13.4420   23.4970 C   0  0  1  0  0  0  0  0  0  0  0  0
   -3.1870   13.6290   24.8260 C   0  0  0  0  0  0  0  0  0  0  0  0
   -4.6120   13.2160   24.4870 C   0  0  1  0  0  0  0  0  0  0  0  0
   -4.7790   13.7590   23.0680 C   0  0  0  0  0  0  0  0  0  0  0  0
   -3.4670   13.5870   22.4630 N   0  0  0  0  0  0  0  0  0  0  0  0
   -3.3680   13.4630   21.0910 C   0  0  0  0  0  0  0  0  0  0  0  0
   -4.2950   13.7080   20.3230 O   0  0  0  0  0  0  0  0  0  0  0  0
   -2.0320   12.4260   23.4430 H   0  0  0  0  0  0  0  0  0  0  0  0
   -3.1740   14.6810   25.1440 H   0  0  0  0  0  0  0  0  0  0  0  0
   -2.7410   13.0250   25.6240 H   0  0  0  0  0  0  0  0  0  0  0  0
   -5.3570   13.6150   25.1840 H   0  0  0  0  0  0  0  0  0  0  0  0
   -4.9980   14.8340   23.0710 H   0  0  0  0  0  0  0  0  0  0  0  0
   -5.5460   13.2250   22.4970 H   0  0  0  0  0  0  0  0  0  0  0  0
   -1.3000   14.4590   23.3780 C   0  0  0  0  0  0  0  0  0  0  0  0
   -1.0370   14.8780   24.3570 H   0  0  0  0  0  0  0  0  0  0  0  0
   -1.5650   15.2980   22.7300 H   0  0  0  0  0  0  0  0  0  0  0  0
   -0.4050   13.9860   22.9570 H   0  0  0  0  0  0  0  0  0  0  0  0
   -4.6950   11.7900   24.5180 O   0  0  0  0  0  0  0  0  0  0  0  0
   -5.6170   11.5560   24.7310 H   0  0  0  0  0  0  0  0  0  0  0  0
    1.8530    8.7780   18.7200 C   0  0  0  0  0  0  0  0  0  0  0  0
    2.4070    8.7260   17.4310 C   0  0  0  0  0  0  0  0  0  0  0  0
    3.2420    7.6750   17.0440 C   0  0  0  0  0  0  0  0  0  0  0  0
    3.5400    6.6490   17.9350 C   0  0  0  0  0  0  0  0  0  0  0  0
    2.9940    6.6580   19.2230 C   0  0  0  0  0  0  0  0  0  0  0  0
    2.1570    7.7270   19.5960 C   0  0  0  0  0  0  0  0  0  0  0  0
    2.2180    9.5010   16.6950 H   0  0  0  0  0  0  0  0  0  0  0  0
    3.6680    7.6630   16.0430 H   0  0  0  0  0  0  0  0  0  0  0  0
    4.1990    5.8450   17.6130 H   0  0  0  0  0  0  0  0  0  0  0  0
    1.7440    7.7140   20.6000 H   0  0  0  0  0  0  0  0  0  0  0  0
    3.3080    5.5660   20.2370 C   0  0  2  0  0  0  0  0  0  0  0  0
    3.4390    6.0360   21.2210 H   0  0  0  0  0  0  0  0  0  0  0  0
    4.6430    4.8950   19.8910 C   0  0  0  0  0  0  0  0  0  0  0  0
    5.3400    4.9560   20.7340 H   0  0  0  0  0  0  0  0  0  0  0  0
    5.1150    5.3780   19.0290 H   0  0  0  0  0  0  0  0  0  0  0  0
    4.5110    3.8330   19.6470 H   0  0  0  0  0  0  0  0  0  0  0  0
    2.1980    4.5000   20.3710 C   0  0  0  0  0  0  0  0  0  0  0  0
    1.2220    4.9760   20.2020 H   0  0  0  0  0  0  0  0  0  0  0  0
    2.1590    4.1040   21.3930 H   0  0  0  0  0  0  0  0  0  0  0  0
    2.3340    3.3700   19.3990 C   0  0  0  0  0  0  0  0  0  0  0  0
    1.9140    3.2090   18.0900 C   0  0  0  0  0  0  0  0  0  0  0  0
    2.3830    1.9230   17.7310 C   0  0  0  0  0  0  0  0  0  0  0  0
    3.0440    1.3190   18.7180 N   0  0  0  0  0  0  0  0  0  0  0  0
    2.9870    2.2080   19.7220 N   0  0  0  0  0  0  0  0  0  0  0  0
    2.2710    1.4070   16.7850 H   0  0  0  0  0  0  0  0  0  0  0  0
    3.4280    1.9600   20.6030 H   0  0  0  0  0  0  0  0  0  0  0  0
    1.1500    4.1460   17.2370 C   0  0  0  0  0  0  0  0  0  0  0  0
    0.1060    3.8330   17.1400 H   0  0  0  0  0  0  0  0  0  0  0  0
    1.1560    5.1520   17.6670 H   0  0  0  0  0  0  0  0  0  0  0  0
    1.5930    4.1970   16.2370 H   0  0  0  0  0  0  0  0  0  0  0  0
    1.1730   14.3630   18.9900 C   0  0  0  0  0  0  0  0  0  0  0  0
    0.6210   15.2670   18.1290 F   0  0  0  0  0  0  0  0  0  0  0  0
    2.1070   13.6900   18.2510 F   0  0  0  0  0  0  0  0  0  0  0  0
    2.0570   15.2660   20.2480 Cl  0  0  0  0  0  0  0  0  0  0  0  0
  1 20  1  0  0  0  0
  2  1  1  0  0  0  0
  2 11  1  0  0  0  0
  3  2  2  0  0  0  0
  4  9  2  0  0  0  0
  4  3  1  0  0  0  0
  5  6  1  0  0  0  0
  5  4  1  0  0  0  0
  5 12  1  0  0  0  0
  6  7  1  0  0  0  0
  7  3  1  0  0  0  0
  7  8  2  0  0  0  0
  9 10  1  0  0  0  0
 10 14  1  0  0  0  0
 10  1  2  0  0  0  0
 13  5  1  0  0  0  0
 15 22  1  6  0  0  0
 15 16  1  0  0  0  0
 16 23  1  0  0  0  0
 16 24  1  0  0  0  0
 17 32  1  0  0  0  0
 17 16  1  0  0  0  0
 17 25  1  1  0  0  0
 18 26  1  0  0  0  0
 18 17  1  0  0  0  0
 19 18  1  0  0  0  0
 19 15  1  0  0  0  0
 20 19  1  0  0  0  0
 21 20  2  0  0  0  0
 27 18  1  0  0  0  0
 28 15  1  0  0  0  0
 28 29  1  0  0  0  0
 30 28  1  0  0  0  0
 31 28  1  0  0  0  0
 32 33  1  0  0  0  0
 34  6  1  0  0  0  0
 34 39  1  0  0  0  0
 35 34  2  0  0  0  0
 36 35  1  0  0  0  0
 36 37  2  0  0  0  0
 37 38  1  0  0  0  0
 38 39  2  0  0  0  0
 38 44  1  0  0  0  0
 39 43  1  0  0  0  0
 40 35  1  0  0  0  0
 41 36  1  0  0  0  0
 42 37  1  0  0  0  0
 44 50  1  0  0  0  0
 44 45  1  1  0  0  0
 46 44  1  0  0  0  0
 46 47  1  0  0  0  0
 48 46  1  0  0  0  0
 49 46  1  0  0  0  0
 50 52  1  0  0  0  0
 51 50  1  0  0  0  0
 53 57  1  0  0  0  0
 53 50  1  0  0  0  0
 54 53  2  0  0  0  0
 55 54  1  0  0  0  0
 55 56  2  0  0  0  0
 56 57  1  0  0  0  0
 57 59  1  0  0  0  0
 58 55  1  0  0  0  0
 60 62  1  0  0  0  0
 60 54  1  0  0  0  0
 61 60  1  0  0  0  0
 63 60  1  0  0  0  0
 64  9  1  0  0  0  0
 64 67  1  0  0  0  0
 65 64  1  0  0  0  0
 66 64  1  0  0  0  0
M  END
>  <MODEL>
26

>  <REMARK>
 VINA RESULT:    -7.457      4.819     10.550
 INTER + INTRA:          -9.961
 INTER:                  -8.820
 INTRA:                  -1.140
 UNBOUND:                 0.984
  Name = 
  10 active torsions:
  status: ('A' for Active; 'I' for Inactive)
    1  A    between atoms: C_1  and  C_2
    2  A    between atoms: C_4  and  O_38
    3  A    between atoms: C_7  and  C_9
    4  A    between atoms: N_14  and  C_17
    5  A    between atoms: C_21  and  C_23
    6  A    between atoms: C_23  and  C_24
    7  A    between atoms: C_23  and  C_25
    8  A    between atoms: C_25  and  C_26
    9  A    between atoms: C_27  and  C_31
   10  A    between atoms: C_32  and  C_34
                            x       y       z     vdW  Elec       q    Type
                         _______ _______ _______ _____ _____    ______ ____

>  <TORSDO>
F 10

$$$$
=
 OpenBabel07192307433D

 67 71  0  0  1  0  0  0  0  0999 V2000
    3.7860    4.9690   19.0340 C   0  0  0  0  0  0  0  0  0  0  0  0
    2.9230    5.9150   19.5880 C   0  0  0  0  0  0  0  0  0  0  0  0
    2.8350    7.1320   18.9430 C   0  0  0  0  0  0  0  0  0  0  0  0
    3.5330    7.4200   17.7680 C   0  0  0  0  0  0  0  0  0  0  0  0
    3.2130    8.8190   17.3430 C   0  0  0  0  0  0  0  0  0  0  0  0
    2.3080    9.3000   18.3770 N   0  0  0  0  0  0  0  0  0  0  0  0
    2.0780    8.3210   19.3490 C   0  0  0  0  0  0  0  0  0  0  0  0
    1.4310    8.3440   20.3770 O   0  0  0  0  0  0  0  0  0  0  0  0
    4.3810    6.4760   17.1740 C   0  0  0  0  0  0  0  0  0  0  0  0
    4.4990    5.2380   17.8420 C   0  0  0  0  0  0  0  0  0  0  0  0
    2.3590    5.7160   20.4940 H   0  0  0  0  0  0  0  0  0  0  0  0
    2.6960    8.8180   16.3770 H   0  0  0  0  0  0  0  0  0  0  0  0
    4.1160    9.4370   17.3250 H   0  0  0  0  0  0  0  0  0  0  0  0
    5.1480    4.4520   17.4470 H   0  0  0  0  0  0  0  0  0  0  0  0
    1.3280    3.2870   19.7070 C   0  0  1  0  0  0  0  0  0  0  0  0
    0.5180    2.1940   20.4300 C   0  0  0  0  0  0  0  0  0  0  0  0
    1.4300    1.7710   21.5720 C   0  0  1  0  0  0  0  0  0  0  0  0
    2.8140    1.8350   20.9250 C   0  0  0  0  0  0  0  0  0  0  0  0
    2.7300    2.9690   20.0160 N   0  0  0  0  0  0  0  0  0  0  0  0
    3.8850    3.6440   19.6720 C   0  0  0  0  0  0  0  0  0  0  0  0
    5.0120    3.2170   19.9090 O   0  0  0  0  0  0  0  0  0  0  0  0
    1.0940    4.2630   20.1410 H   0  0  0  0  0  0  0  0  0  0  0  0
    0.3330    1.3370   19.7690 H   0  0  0  0  0  0  0  0  0  0  0  0
   -0.4500    2.5780   20.7710 H   0  0  0  0  0  0  0  0  0  0  0  0
    1.1950    0.7790   21.9710 H   0  0  0  0  0  0  0  0  0  0  0  0
    3.0160    0.9450   20.3170 H   0  0  0  0  0  0  0  0  0  0  0  0
    3.6170    1.9780   21.6540 H   0  0  0  0  0  0  0  0  0  0  0  0
    1.0130    3.2860   18.2140 C   0  0  0  0  0  0  0  0  0  0  0  0
    0.0210    3.7070   18.0170 H   0  0  0  0  0  0  0  0  0  0  0  0
    1.0260    2.2790   17.7900 H   0  0  0  0  0  0  0  0  0  0  0  0
    1.7530    3.8830   17.6690 H   0  0  0  0  0  0  0  0  0  0  0  0
    1.3020    2.7170   22.6350 O   0  0  0  0  0  0  0  0  0  0  0  0
    1.9130    3.4530   22.4460 H   0  0  0  0  0  0  0  0  0  0  0  0
    1.7710   10.6180   18.3560 C   0  0  0  0  0  0  0  0  0  0  0  0
    2.5860   11.7200   18.0550 C   0  0  0  0  0  0  0  0  0  0  0  0
    2.0610   13.0150   18.0030 C   0  0  0  0  0  0  0  0  0  0  0  0
    0.7110   13.2370   18.2550 C   0  0  0  0  0  0  0  0  0  0  0  0
   -0.1290   12.1650   18.5740 C   0  0  0  0  0  0  0  0  0  0  0  0
    0.4170   10.8670   18.6180 C   0  0  0  0  0  0  0  0  0  0  0  0
    3.6440   11.6100   17.8410 H   0  0  0  0  0  0  0  0  0  0  0  0
    2.7110   13.8520   17.7560 H   0  0  0  0  0  0  0  0  0  0  0  0
    0.3250   14.2520   18.2000 H   0  0  0  0  0  0  0  0  0  0  0  0
   -0.2520   10.0500   18.8680 H   0  0  0  0  0  0  0  0  0  0  0  0
   -1.6160   12.3590   18.8380 C   0  0  2  0  0  0  0  0  0  0  0  0
   -1.9960   13.1140   18.1360 H   0  0  0  0  0  0  0  0  0  0  0  0
   -1.8300   12.9240   20.2480 C   0  0  0  0  0  0  0  0  0  0  0  0
   -0.8990   13.3450   20.6450 H   0  0  0  0  0  0  0  0  0  0  0  0
   -2.1670   12.1440   20.9380 H   0  0  0  0  0  0  0  0  0  0  0  0
   -2.5830   13.7220   20.2530 H   0  0  0  0  0  0  0  0  0  0  0  0
   -2.4570   11.0770   18.6480 C   0  0  0  0  0  0  0  0  0  0  0  0
   -3.3660   11.1500   19.2600 H   0  0  0  0  0  0  0  0  0  0  0  0
   -1.9180   10.1980   19.0240 H   0  0  0  0  0  0  0  0  0  0  0  0
   -2.8740   10.8410   17.2300 C   0  0  0  0  0  0  0  0  0  0  0  0
   -3.9830   11.2420   16.5040 C   0  0  0  0  0  0  0  0  0  0  0  0
   -3.7620   10.7120   15.2110 C   0  0  0  0  0  0  0  0  0  0  0  0
   -2.6160   10.0370   15.1190 N   0  0  0  0  0  0  0  0  0  0  0  0
   -2.1050   10.1160   16.3570 N   0  0  0  0  0  0  0  0  0  0  0  0
   -4.3910   10.7960   14.3340 H   0  0  0  0  0  0  0  0  0  0  0  0
   -1.2150    9.6590   16.5340 H   0  0  0  0  0  0  0  0  0  0  0  0
   -5.1470   12.0390   16.9500 C   0  0  0  0  0  0  0  0  0  0  0  0
   -4.8510   13.0590   17.2150 H   0  0  0  0  0  0  0  0  0  0  0  0
   -5.8970   12.1070   16.1550 H   0  0  0  0  0  0  0  0  0  0  0  0
   -5.6140   11.5740   17.8230 H   0  0  0  0  0  0  0  0  0  0  0  0
    5.1780    6.8410   15.9370 C   0  0  0  0  0  0  0  0  0  0  0  0
    6.1500    7.7500   16.2410 F   0  0  0  0  0  0  0  0  0  0  0  0
    4.4010    7.4500   14.9920 F   0  0  0  0  0  0  0  0  0  0  0  0
    5.9560    5.4440   15.1490 Cl  0  0  0  0  0  0  0  0  0  0  0  0
  1  2  1  0  0  0  0
  1 20  1  0  0  0  0
  2 11  1  0  0  0  0
  3  7  1  0  0  0  0
  3  2  2  0  0  0  0
  4  3  1  0  0  0  0
  5  4  1  0  0  0  0
  5  6  1  0  0  0  0
  6  7  1  0  0  0  0
  7  8  2  0  0  0  0
  9  4  2  0  0  0  0
  9 10  1  0  0  0  0
 10  1  2  0  0  0  0
 12  5  1  0  0  0  0
 13  5  1  0  0  0  0
 14 10  1  0  0  0  0
 15 19  1  0  0  0  0
 15 22  1  1  0  0  0
 15 16  1  0  0  0  0
 16 24  1  0  0  0  0
 16 17  1  0  0  0  0
 17 25  1  1  0  0  0
 17 32  1  0  0  0  0
 18 17  1  0  0  0  0
 18 27  1  0  0  0  0
 19 18  1  0  0  0  0
 20 21  2  0  0  0  0
 20 19  1  0  0  0  0
 23 16  1  0  0  0  0
 26 18  1  0  0  0  0
 28 15  1  0  0  0  0
 29 28  1  0  0  0  0
 30 28  1  0  0  0  0
 31 28  1  0  0  0  0
 33 32  1  0  0  0  0
 34  6  1  0  0  0  0
 34 39  1  0  0  0  0
 35 34  2  0  0  0  0
 36 35  1  0  0  0  0
 36 37  2  0  0  0  0
 37 38  1  0  0  0  0
 38 39  2  0  0  0  0
 38 44  1  0  0  0  0
 39 43  1  0  0  0  0
 40 35  1  0  0  0  0
 41 36  1  0  0  0  0
 42 37  1  0  0  0  0
 44 45  1  6  0  0  0
 44 46  1  0  0  0  0
 46 49  1  0  0  0  0
 46 47  1  0  0  0  0
 46 48  1  0  0  0  0
 50 44  1  0  0  0  0
 50 52  1  0  0  0  0
 50 51  1  0  0  0  0
 53 50  1  0  0  0  0
 54 60  1  0  0  0  0
 54 53  2  0  0  0  0
 55 54  1  0  0  0  0
 56 55  2  0  0  0  0
 56 57  1  0  0  0  0
 57 59  1  0  0  0  0
 57 53  1  0  0  0  0
 58 55  1  0  0  0  0
 60 61  1  0  0  0  0
 60 63  1  0  0  0  0
 62 60  1  0  0  0  0
 64 65  1  0  0  0  0
 64  9  1  0  0  0  0
 66 64  1  0  0  0  0
 67 64  1  0  0  0  0
M  END
>  <MODEL>
27

>  <REMARK>
 VINA RESULT:    -7.352      3.258      4.814
 INTER + INTRA:          -9.807
 INTER:                  -8.735
 INTRA:                  -1.072
 UNBOUND:                 0.984
  Name = 
  10 active torsions:
  status: ('A' for Active; 'I' for Inactive)
    1  A    between atoms: C_1  and  C_2
    2  A    between atoms: C_4  and  O_38
    3  A    between atoms: C_7  and  C_9
    4  A    between atoms: N_14  and  C_17
    5  A    between atoms: C_21  and  C_23
    6  A    between atoms: C_23  and  C_24
    7  A    between atoms: C_23  and  C_25
    8  A    between atoms: C_25  and  C_26
    9  A    between atoms: C_27  and  C_31
   10  A    between atoms: C_32  and  C_34
                            x       y       z     vdW  Elec       q    Type
                         _______ _______ _______ _____ _____    ______ ____

>  <TORSDO>
F 10

$$$$
=
 OpenBabel07192307433D

 67 71  0  0  1  0  0  0  0  0999 V2000
    2.0370    5.8660   20.3450 C   0  0  0  0  0  0  0  0  0  0  0  0
    1.2150    6.6560   21.1490 C   0  0  0  0  0  0  0  0  0  0  0  0
    1.0340    7.9670   20.7570 C   0  0  0  0  0  0  0  0  0  0  0  0
    1.6010    8.4970   19.5960 C   0  0  0  0  0  0  0  0  0  0  0  0
    1.2080    9.9360   19.4760 C   0  0  0  0  0  0  0  0  0  0  0  0
    0.4050   10.1800   20.6650 N   0  0  0  0  0  0  0  0  0  0  0  0
    0.2980    9.0280   21.4520 C   0  0  0  0  0  0  0  0  0  0  0  0
   -0.2410    8.8340   22.5240 O   0  0  0  0  0  0  0  0  0  0  0  0
    2.4030    7.7150   18.7540 C   0  0  0  0  0  0  0  0  0  0  0  0
    2.6170    6.3800   19.1620 C   0  0  0  0  0  0  0  0  0  0  0  0
    0.7520    6.2700   22.0520 H   0  0  0  0  0  0  0  0  0  0  0  0
    0.5950   10.0940   18.5820 H   0  0  0  0  0  0  0  0  0  0  0  0
    2.0910   10.5830   19.4870 H   0  0  0  0  0  0  0  0  0  0  0  0
    3.2390    5.7080   18.5650 H   0  0  0  0  0  0  0  0  0  0  0  0
    3.9670    4.0360   18.8450 C   0  0  1  0  0  0  0  0  0  0  0  0
    4.5580    2.6990   18.3590 C   0  0  0  0  0  0  0  0  0  0  0  0
    3.4970    1.6790   18.7450 C   0  0  1  0  0  0  0  0  0  0  0  0
    3.0060    2.2140   20.0910 C   0  0  0  0  0  0  0  0  0  0  0  0
    3.0630    3.6600   19.9420 N   0  0  0  0  0  0  0  0  0  0  0  0
    2.2300    4.4500   20.7090 C   0  0  0  0  0  0  0  0  0  0  0  0
    1.5940    4.0260   21.6700 O   0  0  0  0  0  0  0  0  0  0  0  0
    3.3700    4.4830   18.0460 H   0  0  0  0  0  0  0  0  0  0  0  0
    5.4980    2.4690   18.8800 H   0  0  0  0  0  0  0  0  0  0  0  0
    4.7620    2.7230   17.2830 H   0  0  0  0  0  0  0  0  0  0  0  0
    3.8820    0.6560   18.8110 H   0  0  0  0  0  0  0  0  0  0  0  0
    3.6890    1.9430   20.9050 H   0  0  0  0  0  0  0  0  0  0  0  0
    1.9900    1.8860   20.3330 H   0  0  0  0  0  0  0  0  0  0  0  0
    5.0810    4.9900   19.2670 C   0  0  0  0  0  0  0  0  0  0  0  0
    5.0200    5.2240   20.3360 H   0  0  0  0  0  0  0  0  0  0  0  0
    5.0370    5.9390   18.7260 H   0  0  0  0  0  0  0  0  0  0  0  0
    6.0610    4.5420   19.0690 H   0  0  0  0  0  0  0  0  0  0  0  0
    2.4610    1.7000   17.7610 O   0  0  0  0  0  0  0  0  0  0  0  0
    2.6640    2.4230   17.1400 H   0  0  0  0  0  0  0  0  0  0  0  0
   -0.1610   11.4550   20.9450 C   0  0  0  0  0  0  0  0  0  0  0  0
    0.6070   12.4650   21.5460 C   0  0  0  0  0  0  0  0  0  0  0  0
    0.0700   13.7300   21.7980 C   0  0  0  0  0  0  0  0  0  0  0  0
   -1.2500   14.0130   21.4600 C   0  0  0  0  0  0  0  0  0  0  0  0
   -2.0510   13.0280   20.8750 C   0  0  0  0  0  0  0  0  0  0  0  0
   -1.4910   11.7590   20.6250 C   0  0  0  0  0  0  0  0  0  0  0  0
    1.6440   12.3070   21.8250 H   0  0  0  0  0  0  0  0  0  0  0  0
    0.6890   14.5000   22.2550 H   0  0  0  0  0  0  0  0  0  0  0  0
   -1.6430   15.0070   21.6600 H   0  0  0  0  0  0  0  0  0  0  0  0
   -2.1300   11.0090   20.1700 H   0  0  0  0  0  0  0  0  0  0  0  0
   -3.4940   13.2990   20.4710 C   0  0  2  0  0  0  0  0  0  0  0  0
   -3.4890   13.9610   19.5940 H   0  0  0  0  0  0  0  0  0  0  0  0
   -4.2190   14.0590   21.5890 C   0  0  0  0  0  0  0  0  0  0  0  0
   -3.6300   14.9210   21.9200 H   0  0  0  0  0  0  0  0  0  0  0  0
   -4.3880   13.4140   22.4580 H   0  0  0  0  0  0  0  0  0  0  0  0
   -5.1950   14.4330   21.2560 H   0  0  0  0  0  0  0  0  0  0  0  0
   -4.2870   12.0270   20.0930 C   0  0  0  0  0  0  0  0  0  0  0  0
   -5.3070   12.1090   20.4930 H   0  0  0  0  0  0  0  0  0  0  0  0
   -3.8530   11.1410   20.5720 H   0  0  0  0  0  0  0  0  0  0  0  0
   -4.3870   11.8030   18.6170 C   0  0  0  0  0  0  0  0  0  0  0  0
   -3.8340   10.8490   17.7780 C   0  0  0  0  0  0  0  0  0  0  0  0
   -4.3420   11.1760   16.4990 C   0  0  0  0  0  0  0  0  0  0  0  0
   -5.1460   12.2390   16.5190 N   0  0  0  0  0  0  0  0  0  0  0  0
   -5.1450   12.6090   17.8090 N   0  0  0  0  0  0  0  0  0  0  0  0
   -4.1580   10.6770   15.5560 H   0  0  0  0  0  0  0  0  0  0  0  0
   -5.6970   13.4200   18.0710 H   0  0  0  0  0  0  0  0  0  0  0  0
   -2.9200    9.7350   18.1130 C   0  0  0  0  0  0  0  0  0  0  0  0
   -3.3940    8.7650   17.9320 H   0  0  0  0  0  0  0  0  0  0  0  0
   -2.0140    9.7810   17.5000 H   0  0  0  0  0  0  0  0  0  0  0  0
   -2.6260    9.7890   19.1650 H   0  0  0  0  0  0  0  0  0  0  0  0
    3.0610    8.3350   17.5370 C   0  0  0  0  0  0  0  0  0  0  0  0
    3.8060    9.4220   17.8930 F   0  0  0  0  0  0  0  0  0  0  0  0
    2.1380    8.8100   16.6470 F   0  0  0  0  0  0  0  0  0  0  0  0
    4.1160    7.2110   16.6420 Cl  0  0  0  0  0  0  0  0  0  0  0  0
  1 20  1  0  0  0  0
  1  2  1  0  0  0  0
  2 11  1  0  0  0  0
  3  2  2  0  0  0  0
  3  7  1  0  0  0  0
  4  3  1  0  0  0  0
  5 13  1  0  0  0  0
  5  4  1  0  0  0  0
  5  6  1  0  0  0  0
  6 34  1  0  0  0  0
  6  7  1  0  0  0  0
  7  8  2  0  0  0  0
  9 10  1  0  0  0  0
  9  4  2  0  0  0  0
 10  1  2  0  0  0  0
 12  5  1  0  0  0  0
 14 10  1  0  0  0  0
 15 22  1  6  0  0  0
 15 28  1  0  0  0  0
 15 19  1  0  0  0  0
 16 17  1  0  0  0  0
 16 15  1  0  0  0  0
 16 23  1  0  0  0  0
 17 25  1  1  0  0  0
 17 18  1  0  0  0  0
 18 27  1  0  0  0  0
 18 26  1  0  0  0  0
 19 18  1  0  0  0  0
 19 20  1  0  0  0  0
 20 21  2  0  0  0  0
 24 16  1  0  0  0  0
 28 29  1  0  0  0  0
 30 28  1  0  0  0  0
 31 28  1  0  0  0  0
 32 17  1  0  0  0  0
 33 32  1  0  0  0  0
 34 35  1  0  0  0  0
 35 36  2  0  0  0  0
 35 40  1  0  0  0  0
 36 41  1  0  0  0  0
 37 42  1  0  0  0  0
 37 36  1  0  0  0  0
 38 37  2  0  0  0  0
 39 38  1  0  0  0  0
 39 34  2  0  0  0  0
 43 39  1  0  0  0  0
 44 45  1  6  0  0  0
 44 38  1  0  0  0  0
 44 46  1  0  0  0  0
 46 47  1  0  0  0  0
 46 48  1  0  0  0  0
 49 46  1  0  0  0  0
 50 44  1  0  0  0  0
 50 51  1  0  0  0  0
 50 52  1  0  0  0  0
 53 50  1  0  0  0  0
 54 60  1  0  0  0  0
 54 53  2  0  0  0  0
 55 56  2  0  0  0  0
 55 54  1  0  0  0  0
 56 57  1  0  0  0  0
 57 59  1  0  0  0  0
 57 53  1  0  0  0  0
 58 55  1  0  0  0  0
 60 63  1  0  0  0  0
 61 60  1  0  0  0  0
 62 60  1  0  0  0  0
 64 65  1  0  0  0  0
 64  9  1  0  0  0  0
 66 64  1  0  0  0  0
 67 64  1  0  0  0  0
M  END
>  <MODEL>
28

>  <REMARK>
 VINA RESULT:    -7.277      3.176      4.292
 INTER + INTRA:          -9.697
 INTER:                  -9.474
 INTRA:                  -0.222
 UNBOUND:                 0.984
  Name = 
  10 active torsions:
  status: ('A' for Active; 'I' for Inactive)
    1  A    between atoms: C_1  and  C_2
    2  A    between atoms: C_4  and  O_38
    3  A    between atoms: C_7  and  C_9
    4  A    between atoms: N_14  and  C_17
    5  A    between atoms: C_21  and  C_23
    6  A    between atoms: C_23  and  C_24
    7  A    between atoms: C_23  and  C_25
    8  A    between atoms: C_25  and  C_26
    9  A    between atoms: C_27  and  C_31
   10  A    between atoms: C_32  and  C_34
                            x       y       z     vdW  Elec       q    Type
                         _______ _______ _______ _____ _____    ______ ____

>  <TORSDO>
F 10

$$$$
=
 OpenBabel07192307433D

 67 71  0  0  1  0  0  0  0  0999 V2000
    0.6450   11.5030   19.9260 C   0  0  0  0  0  0  0  0  0  0  0  0
    1.2440   10.4740   19.1980 C   0  0  0  0  0  0  0  0  0  0  0  0
    1.2200    9.2150   19.7630 C   0  0  0  0  0  0  0  0  0  0  0  0
    0.6000    8.9430   20.9850 C   0  0  0  0  0  0  0  0  0  0  0  0
    0.7640    7.4900   21.3000 C   0  0  0  0  0  0  0  0  0  0  0  0
    1.5420    6.9740   20.1830 N   0  0  0  0  0  0  0  0  0  0  0  0
    1.8390    7.9840   19.2610 C   0  0  0  0  0  0  0  0  0  0  0  0
    2.4920    7.9700   18.2360 O   0  0  0  0  0  0  0  0  0  0  0  0
   -0.0360    9.9520   21.7190 C   0  0  0  0  0  0  0  0  0  0  0  0
    0.0070   11.2490   21.1630 C   0  0  0  0  0  0  0  0  0  0  0  0
    1.7240   10.6520   18.2400 H   0  0  0  0  0  0  0  0  0  0  0  0
   -0.2100    6.9900   21.3290 H   0  0  0  0  0  0  0  0  0  0  0  0
    1.3230    7.3540   22.2330 H   0  0  0  0  0  0  0  0  0  0  0  0
   -0.4580   12.0930   21.6790 H   0  0  0  0  0  0  0  0  0  0  0  0
    3.0590   12.7260   18.5110 C   0  0  1  0  0  0  0  0  0  0  0  0
    3.9460   13.8520   17.9470 C   0  0  0  0  0  0  0  0  0  0  0  0
    3.3390   15.1150   18.5410 C   0  0  1  0  0  0  0  0  0  0  0  0
    1.8420   14.8040   18.5070 C   0  0  0  0  0  0  0  0  0  0  0  0
    1.7690   13.3770   18.7830 N   0  0  0  0  0  0  0  0  0  0  0  0
    0.6190   12.8570   19.3430 C   0  0  0  0  0  0  0  0  0  0  0  0
   -0.4350   13.4830   19.4260 O   0  0  0  0  0  0  0  0  0  0  0  0
    3.4730   12.3750   19.4600 H   0  0  0  0  0  0  0  0  0  0  0  0
    3.8840   13.8940   16.8510 H   0  0  0  0  0  0  0  0  0  0  0  0
    4.9960   13.7070   18.2240 H   0  0  0  0  0  0  0  0  0  0  0  0
    3.5950   16.0220   17.9850 H   0  0  0  0  0  0  0  0  0  0  0  0
    1.4200   14.9650   17.5080 H   0  0  0  0  0  0  0  0  0  0  0  0
    1.2730   15.3740   19.2490 H   0  0  0  0  0  0  0  0  0  0  0  0
    2.9660   11.5710   17.5180 C   0  0  0  0  0  0  0  0  0  0  0  0
    3.9430   11.3540   17.0680 H   0  0  0  0  0  0  0  0  0  0  0  0
    2.2750   11.7850   16.6990 H   0  0  0  0  0  0  0  0  0  0  0  0
    2.6120   10.6640   18.0210 H   0  0  0  0  0  0  0  0  0  0  0  0
    3.8150   15.2660   19.8800 O   0  0  0  0  0  0  0  0  0  0  0  0
    4.6880   15.6960   19.8330 H   0  0  0  0  0  0  0  0  0  0  0  0
    1.9350    5.6090   20.1020 C   0  0  0  0  0  0  0  0  0  0  0  0
    1.8890    4.7810   21.2350 C   0  0  0  0  0  0  0  0  0  0  0  0
    2.2450    3.4320   21.1600 C   0  0  0  0  0  0  0  0  0  0  0  0
    2.6580    2.8800   19.9510 C   0  0  0  0  0  0  0  0  0  0  0  0
    2.7310    3.6770   18.8050 C   0  0  0  0  0  0  0  0  0  0  0  0
    2.3650    5.0340   18.8990 C   0  0  0  0  0  0  0  0  0  0  0  0
    1.5670    5.1520   22.2030 H   0  0  0  0  0  0  0  0  0  0  0  0
    2.1900    2.8080   22.0490 H   0  0  0  0  0  0  0  0  0  0  0  0
    2.9220    1.8250   19.9160 H   0  0  0  0  0  0  0  0  0  0  0  0
    2.4300    5.6350   17.9970 H   0  0  0  0  0  0  0  0  0  0  0  0
    3.1590    3.1110   17.4570 C   0  0  2  0  0  0  0  0  0  0  0  0
    2.2660    2.7330   16.9420 H   0  0  0  0  0  0  0  0  0  0  0  0
    4.0890    1.9090   17.6640 C   0  0  0  0  0  0  0  0  0  0  0  0
    3.6360    0.9930   17.2670 H   0  0  0  0  0  0  0  0  0  0  0  0
    4.2950    1.7490   18.7270 H   0  0  0  0  0  0  0  0  0  0  0  0
    5.0510    2.0500   17.1550 H   0  0  0  0  0  0  0  0  0  0  0  0
    3.8310    4.1480   16.5290 C   0  0  0  0  0  0  0  0  0  0  0  0
    3.3610    5.1290   16.6880 H   0  0  0  0  0  0  0  0  0  0  0  0
    3.6520    3.9020   15.4750 H   0  0  0  0  0  0  0  0  0  0  0  0
    5.3010    4.2980   16.7670 C   0  0  0  0  0  0  0  0  0  0  0  0
    6.3950    4.2450   15.9190 C   0  0  0  0  0  0  0  0  0  0  0  0
    7.5020    4.4930   16.7630 C   0  0  0  0  0  0  0  0  0  0  0  0
    7.1490    4.6890   18.0340 N   0  0  0  0  0  0  0  0  0  0  0  0
    5.8140    4.5500   18.0130 N   0  0  0  0  0  0  0  0  0  0  0  0
    8.5510    4.5420   16.4990 H   0  0  0  0  0  0  0  0  0  0  0  0
    5.3120    4.6530   18.8900 H   0  0  0  0  0  0  0  0  0  0  0  0
    6.4290    3.9890   14.4620 C   0  0  0  0  0  0  0  0  0  0  0  0
    6.6600    2.9400   14.2480 H   0  0  0  0  0  0  0  0  0  0  0  0
    5.4590    4.2140   14.0070 H   0  0  0  0  0  0  0  0  0  0  0  0
    7.1860    4.6170   13.9840 H   0  0  0  0  0  0  0  0  0  0  0  0
   -0.6410    9.6420   23.0740 C   0  0  0  0  0  0  0  0  0  0  0  0
    0.3380    9.4140   23.9980 F   0  0  0  0  0  0  0  0  0  0  0  0
   -1.3820    8.4930   23.0500 F   0  0  0  0  0  0  0  0  0  0  0  0
   -1.7010   10.9320   23.6990 Cl  0  0  0  0  0  0  0  0  0  0  0  0
  1 10  1  0  0  0  0
  2  3  1  0  0  0  0
  2  1  2  0  0  0  0
  3  4  2  0  0  0  0
  4  5  1  0  0  0  0
  4  9  1  0  0  0  0
  5 12  1  0  0  0  0
  5 13  1  0  0  0  0
  6  5  1  0  0  0  0
  7  3  1  0  0  0  0
  7  6  1  0  0  0  0
  8  7  2  0  0  0  0
  9 64  1  0  0  0  0
 10 14  1  0  0  0  0
 10  9  2  0  0  0  0
 11  2  1  0  0  0  0
 15 19  1  0  0  0  0
 15 22  1  1  0  0  0
 16 24  1  0  0  0  0
 16 15  1  0  0  0  0
 16 17  1  0  0  0  0
 17 25  1  6  0  0  0
 17 32  1  0  0  0  0
 18 17  1  0  0  0  0
 18 19  1  0  0  0  0
 18 27  1  0  0  0  0
 19 20  1  0  0  0  0
 20 21  2  0  0  0  0
 20  1  1  0  0  0  0
 23 16  1  0  0  0  0
 26 18  1  0  0  0  0
 28 31  1  0  0  0  0
 28 15  1  0  0  0  0
 29 28  1  0  0  0  0
 30 28  1  0  0  0  0
 33 32  1  0  0  0  0
 34  6  1  0  0  0  0
 34 35  1  0  0  0  0
 35 40  1  0  0  0  0
 36 35  2  0  0  0  0
 36 41  1  0  0  0  0
 37 36  1  0  0  0  0
 38 39  1  0  0  0  0
 38 37  2  0  0  0  0
 39 34  2  0  0  0  0
 42 37  1  0  0  0  0
 43 39  1  0  0  0  0
 44 45  1  6  0  0  0
 44 46  1  0  0  0  0
 44 38  1  0  0  0  0
 46 48  1  0  0  0  0
 47 46  1  0  0  0  0
 49 46  1  0  0  0  0
 50 51  1  0  0  0  0
 50 53  1  0  0  0  0
 50 44  1  0  0  0  0
 52 50  1  0  0  0  0
 53 57  1  0  0  0  0
 54 55  1  0  0  0  0
 54 53  2  0  0  0  0
 55 56  2  0  0  0  0
 57 56  1  0  0  0  0
 57 59  1  0  0  0  0
 58 55  1  0  0  0  0
 60 54  1  0  0  0  0
 61 60  1  0  0  0  0
 62 60  1  0  0  0  0
 63 60  1  0  0  0  0
 64 67  1  0  0  0  0
 64 65  1  0  0  0  0
 66 64  1  0  0  0  0
M  END
>  <MODEL>
29

>  <REMARK>
 VINA RESULT:    -7.255      3.462      8.838
 INTER + INTRA:          -9.664
 INTER:                 -10.284
 INTRA:                   0.620
 UNBOUND:                 0.984
  Name = 
  10 active torsions:
  status: ('A' for Active; 'I' for Inactive)
    1  A    between atoms: C_1  and  C_2
    2  A    between atoms: C_4  and  O_38
    3  A    between atoms: C_7  and  C_9
    4  A    between atoms: N_14  and  C_17
    5  A    between atoms: C_21  and  C_23
    6  A    between atoms: C_23  and  C_24
    7  A    between atoms: C_23  and  C_25
    8  A    between atoms: C_25  and  C_26
    9  A    between atoms: C_27  and  C_31
   10  A    between atoms: C_32  and  C_34
                            x       y       z     vdW  Elec       q    Type
                         _______ _______ _______ _____ _____    ______ ____

>  <TORSDO>
F 10

$$$$
=
 OpenBabel07192307433D

 67 71  0  0  1  0  0  0  0  0999 V2000
   -2.8990   12.8580   21.1460 C   0  0  0  0  0  0  0  0  0  0  0  0
   -1.9160   12.0860   21.7660 C   0  0  0  0  0  0  0  0  0  0  0  0
   -1.3120   11.1120   20.9960 C   0  0  0  0  0  0  0  0  0  0  0  0
   -1.6190   10.9100   19.6490 C   0  0  0  0  0  0  0  0  0  0  0  0
   -0.7880    9.7820   19.1250 C   0  0  0  0  0  0  0  0  0  0  0  0
   -0.0150    9.3500   20.2810 N   0  0  0  0  0  0  0  0  0  0  0  0
   -0.3180   10.1160   21.4110 C   0  0  0  0  0  0  0  0  0  0  0  0
    0.0730   10.0450   22.5590 O   0  0  0  0  0  0  0  0  0  0  0  0
   -2.5790   11.6930   18.9950 C   0  0  0  0  0  0  0  0  0  0  0  0
   -3.2230   12.6740   19.7810 C   0  0  0  0  0  0  0  0  0  0  0  0
   -1.6480   12.2270   22.8080 H   0  0  0  0  0  0  0  0  0  0  0  0
   -0.1080   10.1360   18.3420 H   0  0  0  0  0  0  0  0  0  0  0  0
   -1.4220    8.9600   18.7770 H   0  0  0  0  0  0  0  0  0  0  0  0
   -3.9910   13.3200   19.3480 H   0  0  0  0  0  0  0  0  0  0  0  0
   -1.5320   14.2270   23.5080 C   0  0  1  0  0  0  0  0  0  0  0  0
   -1.4440   15.0410   24.8130 C   0  0  0  0  0  0  0  0  0  0  0  0
   -2.8880   15.1140   25.2850 C   0  0  1  0  0  0  0  0  0  0  0  0
   -3.6540   15.2660   23.9700 C   0  0  0  0  0  0  0  0  0  0  0  0
   -2.9010   14.4560   23.0240 N   0  0  0  0  0  0  0  0  0  0  0  0
   -3.5470   13.9310   21.9220 C   0  0  0  0  0  0  0  0  0  0  0  0
   -4.6690   14.2820   21.5670 O   0  0  0  0  0  0  0  0  0  0  0  0
   -1.4200   13.1630   23.7330 H   0  0  0  0  0  0  0  0  0  0  0  0
   -1.0670   16.0550   24.6210 H   0  0  0  0  0  0  0  0  0  0  0  0
   -0.7770   14.5600   25.5360 H   0  0  0  0  0  0  0  0  0  0  0  0
   -3.0760   15.9370   25.9810 H   0  0  0  0  0  0  0  0  0  0  0  0
   -3.6280   16.3000   23.6060 H   0  0  0  0  0  0  0  0  0  0  0  0
   -4.6900   14.9210   24.0400 H   0  0  0  0  0  0  0  0  0  0  0  0
   -0.4510   14.6720   22.5270 C   0  0  0  0  0  0  0  0  0  0  0  0
    0.3250   15.2620   23.0290 H   0  0  0  0  0  0  0  0  0  0  0  0
   -0.8550   15.2910   21.7210 H   0  0  0  0  0  0  0  0  0  0  0  0
    0.0270   13.8000   22.0650 H   0  0  0  0  0  0  0  0  0  0  0  0
   -3.2160   13.8910   25.9460 O   0  0  0  0  0  0  0  0  0  0  0  0
   -4.0360   13.5510   25.5420 H   0  0  0  0  0  0  0  0  0  0  0  0
    0.9060    8.2680   20.2110 C   0  0  0  0  0  0  0  0  0  0  0  0
    0.8870    7.2450   21.1720 C   0  0  0  0  0  0  0  0  0  0  0  0
    1.7680    6.1630   21.0960 C   0  0  0  0  0  0  0  0  0  0  0  0
    2.6920    6.0810   20.0590 C   0  0  0  0  0  0  0  0  0  0  0  0
    2.7520    7.0890   19.0910 C   0  0  0  0  0  0  0  0  0  0  0  0
    1.8540    8.1700   19.1830 C   0  0  0  0  0  0  0  0  0  0  0  0
    0.1840    7.2490   21.9990 H   0  0  0  0  0  0  0  0  0  0  0  0
    1.7260    5.3770   21.8470 H   0  0  0  0  0  0  0  0  0  0  0  0
    3.3620    5.2250   20.0160 H   0  0  0  0  0  0  0  0  0  0  0  0
    1.9180    8.9410   18.4210 H   0  0  0  0  0  0  0  0  0  0  0  0
    3.7340    7.0310   17.9280 C   0  0  2  0  0  0  0  0  0  0  0  0
    4.7150    7.3700   18.2880 H   0  0  0  0  0  0  0  0  0  0  0  0
    3.3060    8.0120   16.8300 C   0  0  0  0  0  0  0  0  0  0  0  0
    4.0590    8.7970   16.6930 H   0  0  0  0  0  0  0  0  0  0  0  0
    2.3570    8.4970   17.0830 H   0  0  0  0  0  0  0  0  0  0  0  0
    3.1760    7.5060   15.8650 H   0  0  0  0  0  0  0  0  0  0  0  0
    3.9160    5.6160   17.3340 C   0  0  0  0  0  0  0  0  0  0  0  0
    3.3660    5.5520   16.3850 H   0  0  0  0  0  0  0  0  0  0  0  0
    3.4660    4.8580   17.9870 H   0  0  0  0  0  0  0  0  0  0  0  0
    5.3450    5.2610   17.0640 C   0  0  0  0  0  0  0  0  0  0  0  0
    6.4340    5.0730   17.8980 C   0  0  0  0  0  0  0  0  0  0  0  0
    7.4880    4.7280   17.0200 C   0  0  0  0  0  0  0  0  0  0  0  0
    7.1080    4.6980   15.7430 N   0  0  0  0  0  0  0  0  0  0  0  0
    5.8110    5.0390   15.7940 N   0  0  0  0  0  0  0  0  0  0  0  0
    8.5170    4.4950   17.2640 H   0  0  0  0  0  0  0  0  0  0  0  0
    5.2980    5.0900   14.9190 H   0  0  0  0  0  0  0  0  0  0  0  0
    6.5090    5.1960   19.3700 C   0  0  0  0  0  0  0  0  0  0  0  0
    5.9920    4.3680   19.8660 H   0  0  0  0  0  0  0  0  0  0  0  0
    7.5510    5.1850   19.7070 H   0  0  0  0  0  0  0  0  0  0  0  0
    6.0530    6.1360   19.6960 H   0  0  0  0  0  0  0  0  0  0  0  0
   -2.9410   11.4070   17.5510 C   0  0  0  0  0  0  0  0  0  0  0  0
   -1.9550   11.8410   16.7120 F   0  0  0  0  0  0  0  0  0  0  0  0
   -4.0630   12.0840   17.1640 F   0  0  0  0  0  0  0  0  0  0  0  0
   -3.2330    9.6810   17.2150 Cl  0  0  0  0  0  0  0  0  0  0  0  0
  1  2  1  0  0  0  0
  1 20  1  0  0  0  0
  2 11  1  0  0  0  0
  3  7  1  0  0  0  0
  3  2  2  0  0  0  0
  4  3  1  0  0  0  0
  5  4  1  0  0  0  0
  5  6  1  0  0  0  0
  6  7  1  0  0  0  0
  7  8  2  0  0  0  0
  9  4  2  0  0  0  0
  9 10  1  0  0  0  0
 10  1  2  0  0  0  0
 12  5  1  0  0  0  0
 13  5  1  0  0  0  0
 14 10  1  0  0  0  0
 15 22  1  1  0  0  0
 15 16  1  0  0  0  0
 16 17  1  0  0  0  0
 16 24  1  0  0  0  0
 17 32  1  0  0  0  0
 17 25  1  1  0  0  0
 18 27  1  0  0  0  0
 18 17  1  0  0  0  0
 19 15  1  0  0  0  0
 19 18  1  0  0  0  0
 20 19  1  0  0  0  0
 21 20  2  0  0  0  0
 23 16  1  0  0  0  0
 26 18  1  0  0  0  0
 28 29  1  0  0  0  0
 28 15  1  0  0  0  0
 30 28  1  0  0  0  0
 31 28  1  0  0  0  0
 33 32  1  0  0  0  0
 34  6  1  0  0  0  0
 34 35  1  0  0  0  0
 35 40  1  0  0  0  0
 36 35  2  0  0  0  0
 36 41  1  0  0  0  0
 37 36  1  0  0  0  0
 38 39  1  0  0  0  0
 38 37  2  0  0  0  0
 39 34  2  0  0  0  0
 42 37  1  0  0  0  0
 43 39  1  0  0  0  0
 44 45  1  1  0  0  0
 44 38  1  0  0  0  0
 46 48  1  0  0  0  0
 46 44  1  0  0  0  0
 47 46  1  0  0  0  0
 49 46  1  0  0  0  0
 50 44  1  0  0  0  0
 50 52  1  0  0  0  0
 51 50  1  0  0  0  0
 53 50  1  0  0  0  0
 53 54  2  0  0  0  0
 54 60  1  0  0  0  0
 55 58  1  0  0  0  0
 55 54  1  0  0  0  0
 56 57  1  0  0  0  0
 56 55  2  0  0  0  0
 57 53  1  0  0  0  0
 59 57  1  0  0  0  0
 60 63  1  0  0  0  0
 60 62  1  0  0  0  0
 60 61  1  0  0  0  0
 64  9  1  0  0  0  0
 65 64  1  0  0  0  0
 66 64  1  0  0  0  0
 67 64  1  0  0  0  0
M  END
>  <MODEL>
30

>  <REMARK>
 VINA RESULT:    -7.209      4.641     10.649
 INTER + INTRA:          -9.597
 INTER:                  -9.426
 INTRA:                  -0.171
 UNBOUND:                 0.984
  Name = 
  10 active torsions:
  status: ('A' for Active; 'I' for Inactive)
    1  A    between atoms: C_1  and  C_2
    2  A    between atoms: C_4  and  O_38
    3  A    between atoms: C_7  and  C_9
    4  A    between atoms: N_14  and  C_17
    5  A    between atoms: C_21  and  C_23
    6  A    between atoms: C_23  and  C_24
    7  A    between atoms: C_23  and  C_25
    8  A    between atoms: C_25  and  C_26
    9  A    between atoms: C_27  and  C_31
   10  A    between atoms: C_32  and  C_34
                            x       y       z     vdW  Elec       q    Type
                         _______ _______ _______ _____ _____    ______ ____

>  <TORSDO>
F 10

$$$$
=
 OpenBabel07192307433D

 67 71  0  0  1  0  0  0  0  0999 V2000
    3.1450    7.2990   18.0810 C   0  0  0  0  0  0  0  0  0  0  0  0
    3.0490    8.6100   17.6110 C   0  0  0  0  0  0  0  0  0  0  0  0
    2.2850    9.4830   18.3580 C   0  0  0  0  0  0  0  0  0  0  0  0
    1.6570    9.1150   19.5490 C   0  0  0  0  0  0  0  0  0  0  0  0
    0.9140   10.2950   20.0920 C   0  0  0  0  0  0  0  0  0  0  0  0
    1.1480   11.3410   19.1060 N   0  0  0  0  0  0  0  0  0  0  0  0
    1.9490   10.8790   18.0560 C   0  0  0  0  0  0  0  0  0  0  0  0
    2.3290   11.4210   17.0370 O   0  0  0  0  0  0  0  0  0  0  0  0
    1.7650    7.8150   20.0580 C   0  0  0  0  0  0  0  0  0  0  0  0
    2.5220    6.9060   19.2880 C   0  0  0  0  0  0  0  0  0  0  0  0
    3.5350    8.9280   16.6940 H   0  0  0  0  0  0  0  0  0  0  0  0
    1.3320   10.6030   21.0570 H   0  0  0  0  0  0  0  0  0  0  0  0
   -0.1590   10.0840   20.1580 H   0  0  0  0  0  0  0  0  0  0  0  0
    2.6460    5.8690   19.6120 H   0  0  0  0  0  0  0  0  0  0  0  0
    2.6010    4.2940   18.0890 C   0  0  1  0  0  0  0  0  0  0  0  0
    2.9270    2.7980   17.9220 C   0  0  0  0  0  0  0  0  0  0  0  0
    4.4440    2.7760   17.7980 C   0  0  1  0  0  0  0  0  0  0  0  0
    4.7210    4.0360   16.9770 C   0  0  0  0  0  0  0  0  0  0  0  0
    3.7220    4.9890   17.4390 N   0  0  0  0  0  0  0  0  0  0  0  0
    3.9800    6.3410   17.3320 C   0  0  0  0  0  0  0  0  0  0  0  0
    4.9080    6.8010   16.6710 O   0  0  0  0  0  0  0  0  0  0  0  0
    2.6050    4.5540   19.1510 H   0  0  0  0  0  0  0  0  0  0  0  0
    2.4760    2.3940   17.0060 H   0  0  0  0  0  0  0  0  0  0  0  0
    2.5560    2.2140   18.7720 H   0  0  0  0  0  0  0  0  0  0  0  0
    4.8270    1.8680   17.3210 H   0  0  0  0  0  0  0  0  0  0  0  0
    4.5430    3.8690   15.9090 H   0  0  0  0  0  0  0  0  0  0  0  0
    5.7320    4.4280   17.1300 H   0  0  0  0  0  0  0  0  0  0  0  0
    1.2410    4.6160   17.4750 C   0  0  0  0  0  0  0  0  0  0  0  0
    0.4900    4.8080   18.2500 H   0  0  0  0  0  0  0  0  0  0  0  0
    0.8640    3.7980   16.8560 H   0  0  0  0  0  0  0  0  0  0  0  0
    1.3120    5.5060   16.8380 H   0  0  0  0  0  0  0  0  0  0  0  0
    5.0130    2.8630   19.1060 O   0  0  0  0  0  0  0  0  0  0  0  0
    5.4020    3.7520   19.1950 H   0  0  0  0  0  0  0  0  0  0  0  0
    0.5930   12.6430   19.2410 C   0  0  0  0  0  0  0  0  0  0  0  0
    1.3220   13.7790   18.8550 C   0  0  0  0  0  0  0  0  0  0  0  0
    0.7740   15.0600   18.9560 C   0  0  0  0  0  0  0  0  0  0  0  0
   -0.5140   15.2370   19.4500 C   0  0  0  0  0  0  0  0  0  0  0  0
   -1.2660   14.1310   19.8590 C   0  0  0  0  0  0  0  0  0  0  0  0
   -0.6980   12.8470   19.7470 C   0  0  0  0  0  0  0  0  0  0  0  0
    2.3280   13.7050   18.4540 H   0  0  0  0  0  0  0  0  0  0  0  0
    1.3560   15.9240   18.6390 H   0  0  0  0  0  0  0  0  0  0  0  0
   -0.9220   16.2430   19.5110 H   0  0  0  0  0  0  0  0  0  0  0  0
   -1.2990   12.0020   20.0710 H   0  0  0  0  0  0  0  0  0  0  0  0
   -2.6870   14.2750   20.3880 C   0  0  2  0  0  0  0  0  0  0  0  0
   -3.2800   14.8210   19.6410 H   0  0  0  0  0  0  0  0  0  0  0  0
   -2.6900   15.1320   21.6610 C   0  0  0  0  0  0  0  0  0  0  0  0
   -2.6430   16.1980   21.4130 H   0  0  0  0  0  0  0  0  0  0  0  0
   -1.8300   14.8950   22.2960 H   0  0  0  0  0  0  0  0  0  0  0  0
   -3.5990   14.9690   22.2540 H   0  0  0  0  0  0  0  0  0  0  0  0
   -3.3950   12.9270   20.6540 C   0  0  0  0  0  0  0  0  0  0  0  0
   -2.7660   12.1110   20.2710 H   0  0  0  0  0  0  0  0  0  0  0  0
   -4.3350   12.8630   20.0930 H   0  0  0  0  0  0  0  0  0  0  0  0
   -3.6560   12.6660   22.1040 C   0  0  0  0  0  0  0  0  0  0  0  0
   -2.8550   12.1810   23.1250 C   0  0  0  0  0  0  0  0  0  0  0  0
   -3.6940   12.2000   24.2630 C   0  0  0  0  0  0  0  0  0  0  0  0
   -4.9170   12.6580   23.9960 N   0  0  0  0  0  0  0  0  0  0  0  0
   -4.8740   12.9190   22.6800 N   0  0  0  0  0  0  0  0  0  0  0  0
   -3.4580   11.9020   25.2770 H   0  0  0  0  0  0  0  0  0  0  0  0
   -5.7150   13.2800   22.2390 H   0  0  0  0  0  0  0  0  0  0  0  0
   -1.4460   11.7360   23.0670 C   0  0  0  0  0  0  0  0  0  0  0  0
   -1.3550   10.7630   22.5740 H   0  0  0  0  0  0  0  0  0  0  0  0
   -0.8370   12.4510   22.5050 H   0  0  0  0  0  0  0  0  0  0  0  0
   -1.0320   11.6540   24.0780 H   0  0  0  0  0  0  0  0  0  0  0  0
    1.0170    7.4250   21.3180 C   0  0  0  0  0  0  0  0  0  0  0  0
    1.6190    7.9590   22.4210 F   0  0  0  0  0  0  0  0  0  0  0  0
    1.0330    6.0730   21.5220 F   0  0  0  0  0  0  0  0  0  0  0  0
   -0.6930    7.9300   21.3220 Cl  0  0  0  0  0  0  0  0  0  0  0  0
  1 10  1  0  0  0  0
  2  1  2  0  0  0  0
  2  3  1  0  0  0  0
  3  4  2  0  0  0  0
  4  9  1  0  0  0  0
  4  5  1  0  0  0  0
  5 13  1  0  0  0  0
  5 12  1  0  0  0  0
  6 34  1  0  0  0  0
  6  5  1  0  0  0  0
  7  3  1  0  0  0  0
  7  6  1  0  0  0  0
  8  7  2  0  0  0  0
  9 64  1  0  0  0  0
 10 14  1  0  0  0  0
 10  9  2  0  0  0  0
 11  2  1  0  0  0  0
 15 22  1  1  0  0  0
 16 15  1  0  0  0  0
 16 24  1  0  0  0  0
 17 25  1  6  0  0  0
 17 16  1  0  0  0  0
 17 32  1  0  0  0  0
 18 27  1  0  0  0  0
 18 19  1  0  0  0  0
 18 17  1  0  0  0  0
 19 15  1  0  0  0  0
 20 19  1  0  0  0  0
 20  1  1  0  0  0  0
 21 20  2  0  0  0  0
 23 16  1  0  0  0  0
 26 18  1  0  0  0  0
 28 15  1  0  0  0  0
 28 29  1  0  0  0  0
 30 28  1  0  0  0  0
 31 28  1  0  0  0  0
 32 33  1  0  0  0  0
 34 39  1  0  0  0  0
 35 36  1  0  0  0  0
 35 34  2  0  0  0  0
 36 37  2  0  0  0  0
 37 42  1  0  0  0  0
 37 38  1  0  0  0  0
 38 44  1  0  0  0  0
 39 38  2  0  0  0  0
 39 43  1  0  0  0  0
 40 35  1  0  0  0  0
 41 36  1  0  0  0  0
 44 45  1  6  0  0  0
 44 50  1  0  0  0  0
 44 46  1  0  0  0  0
 46 49  1  0  0  0  0
 46 48  1  0  0  0  0
 47 46  1  0  0  0  0
 50 53  1  0  0  0  0
 51 50  1  0  0  0  0
 52 50  1  0  0  0  0
 53 57  1  0  0  0  0
 53 54  2  0  0  0  0
 54 55  1  0  0  0  0
 55 58  1  0  0  0  0
 56 55  2  0  0  0  0
 57 56  1  0  0  0  0
 59 57  1  0  0  0  0
 60 54  1  0  0  0  0
 60 63  1  0  0  0  0
 61 60  1  0  0  0  0
 62 60  1  0  0  0  0
 64 67  1  0  0  0  0
 64 66  1  0  0  0  0
 64 65  1  0  0  0  0
M  END
>  <MODEL>
31

>  <REMARK>
 VINA RESULT:    -7.184      3.012      4.694
 INTER + INTRA:          -9.560
 INTER:                  -9.127
 INTRA:                  -0.434
 UNBOUND:                 0.984
  Name = 
  10 active torsions:
  status: ('A' for Active; 'I' for Inactive)
    1  A    between atoms: C_1  and  C_2
    2  A    between atoms: C_4  and  O_38
    3  A    between atoms: C_7  and  C_9
    4  A    between atoms: N_14  and  C_17
    5  A    between atoms: C_21  and  C_23
    6  A    between atoms: C_23  and  C_24
    7  A    between atoms: C_23  and  C_25
    8  A    between atoms: C_25  and  C_26
    9  A    between atoms: C_27  and  C_31
   10  A    between atoms: C_32  and  C_34
                            x       y       z     vdW  Elec       q    Type
                         _______ _______ _______ _____ _____    ______ ____

>  <TORSDO>
F 10

$$$$
=
 OpenBabel07192307433D

 67 71  0  0  1  0  0  0  0  0999 V2000
   -1.0690   11.1930   21.7330 C   0  0  0  0  0  0  0  0  0  0  0  0
   -0.3990    9.9720   21.6390 C   0  0  0  0  0  0  0  0  0  0  0  0
    0.4030    9.7870   20.5310 C   0  0  0  0  0  0  0  0  0  0  0  0
    0.5860   10.7670   19.5540 C   0  0  0  0  0  0  0  0  0  0  0  0
    1.5070   10.2370   18.5000 C   0  0  0  0  0  0  0  0  0  0  0  0
    1.8030    8.8820   18.9430 N   0  0  0  0  0  0  0  0  0  0  0  0
    1.1470    8.5840   20.1420 C   0  0  0  0  0  0  0  0  0  0  0  0
    1.1030    7.5650   20.8030 O   0  0  0  0  0  0  0  0  0  0  0  0
   -0.0500   12.0120   19.6420 C   0  0  0  0  0  0  0  0  0  0  0  0
   -0.8940   12.2020   20.7580 C   0  0  0  0  0  0  0  0  0  0  0  0
   -0.5130    9.1950   22.3890 H   0  0  0  0  0  0  0  0  0  0  0  0
    2.4320   10.8220   18.4680 H   0  0  0  0  0  0  0  0  0  0  0  0
    1.0070   10.2050   17.5260 H   0  0  0  0  0  0  0  0  0  0  0  0
   -1.4340   13.1420   20.8940 H   0  0  0  0  0  0  0  0  0  0  0  0
   -3.2720   13.3070   21.7580 C   0  0  1  0  0  0  0  0  0  0  0  0
   -4.2710   14.3010   22.3820 C   0  0  0  0  0  0  0  0  0  0  0  0
   -3.8370   14.3760   23.8380 C   0  0  1  0  0  0  0  0  0  0  0  0
   -3.4300   12.9310   24.1310 C   0  0  0  0  0  0  0  0  0  0  0  0
   -2.8380   12.4680   22.8850 N   0  0  0  0  0  0  0  0  0  0  0  0
   -1.9100   11.4460   22.9180 C   0  0  0  0  0  0  0  0  0  0  0  0
   -1.7080   10.7500   23.9090 O   0  0  0  0  0  0  0  0  0  0  0  0
   -2.4030   13.8520   21.3810 H   0  0  0  0  0  0  0  0  0  0  0  0
   -5.2990   13.9170   22.3220 H   0  0  0  0  0  0  0  0  0  0  0  0
   -4.2380   15.2690   21.8710 H   0  0  0  0  0  0  0  0  0  0  0  0
   -4.6250   14.7370   24.5070 H   0  0  0  0  0  0  0  0  0  0  0  0
   -4.3030   12.2990   24.3320 H   0  0  0  0  0  0  0  0  0  0  0  0
   -2.7140   12.8510   24.9560 H   0  0  0  0  0  0  0  0  0  0  0  0
   -3.9330   12.5240   20.6280 C   0  0  0  0  0  0  0  0  0  0  0  0
   -4.2590   13.1900   19.8200 H   0  0  0  0  0  0  0  0  0  0  0  0
   -4.8130   11.9730   20.9670 H   0  0  0  0  0  0  0  0  0  0  0  0
   -3.2290   11.7960   20.2080 H   0  0  0  0  0  0  0  0  0  0  0  0
   -2.7250   15.2670   23.9400 O   0  0  0  0  0  0  0  0  0  0  0  0
   -2.2110   15.1870   23.1160 H   0  0  0  0  0  0  0  0  0  0  0  0
    2.6490    8.0130   18.1990 C   0  0  0  0  0  0  0  0  0  0  0  0
    3.6300    8.5290   17.3390 C   0  0  0  0  0  0  0  0  0  0  0  0
    4.4850    7.6830   16.6260 C   0  0  0  0  0  0  0  0  0  0  0  0
    4.3750    6.3030   16.7540 C   0  0  0  0  0  0  0  0  0  0  0  0
    3.3990    5.7510   17.5900 C   0  0  0  0  0  0  0  0  0  0  0  0
    2.5490    6.6190   18.3030 C   0  0  0  0  0  0  0  0  0  0  0  0
    3.7700    9.5960   17.2030 H   0  0  0  0  0  0  0  0  0  0  0  0
    5.2450    8.1080   15.9730 H   0  0  0  0  0  0  0  0  0  0  0  0
    5.0570    5.6650   16.1950 H   0  0  0  0  0  0  0  0  0  0  0  0
    1.7980    6.1690   18.9460 H   0  0  0  0  0  0  0  0  0  0  0  0
    3.2550    4.2460   17.7750 C   0  0  2  0  0  0  0  0  0  0  0  0
    3.3260    3.7680   16.7890 H   0  0  0  0  0  0  0  0  0  0  0  0
    1.8610    3.9150   18.3240 C   0  0  0  0  0  0  0  0  0  0  0  0
    1.5830    4.6080   19.1250 H   0  0  0  0  0  0  0  0  0  0  0  0
    1.8300    2.8990   18.7320 H   0  0  0  0  0  0  0  0  0  0  0  0
    1.0930    3.9850   17.5440 H   0  0  0  0  0  0  0  0  0  0  0  0
    4.3430    3.6210   18.6780 C   0  0  0  0  0  0  0  0  0  0  0  0
    4.4860    2.5700   18.3910 H   0  0  0  0  0  0  0  0  0  0  0  0
    4.0160    3.5980   19.7240 H   0  0  0  0  0  0  0  0  0  0  0  0
    5.6680    4.3100   18.5800 C   0  0  0  0  0  0  0  0  0  0  0  0
    6.5830    4.4320   17.5480 C   0  0  0  0  0  0  0  0  0  0  0  0
    7.6160    5.2310   18.0930 C   0  0  0  0  0  0  0  0  0  0  0  0
    7.3810    5.5880   19.3550 N   0  0  0  0  0  0  0  0  0  0  0  0
    6.2040    5.0060   19.6320 N   0  0  0  0  0  0  0  0  0  0  0  0
    8.5270    5.5680   17.6150 H   0  0  0  0  0  0  0  0  0  0  0  0
    5.8170    5.1360   20.5620 H   0  0  0  0  0  0  0  0  0  0  0  0
    6.5230    3.8680   16.1820 C   0  0  0  0  0  0  0  0  0  0  0  0
    7.3870    4.1780   15.5850 H   0  0  0  0  0  0  0  0  0  0  0  0
    6.5190    2.7740   16.2150 H   0  0  0  0  0  0  0  0  0  0  0  0
    5.6120    4.1990   15.6740 H   0  0  0  0  0  0  0  0  0  0  0  0
    0.1130   13.0310   18.5320 C   0  0  0  0  0  0  0  0  0  0  0  0
   -0.4860   14.2110   18.8690 F   0  0  0  0  0  0  0  0  0  0  0  0
   -0.5060   12.6320   17.3800 F   0  0  0  0  0  0  0  0  0  0  0  0
    1.8130   13.3730   18.1170 Cl  0  0  0  0  0  0  0  0  0  0  0  0
  1 20  1  0  0  0  0
  2  1  1  0  0  0  0
  2 11  1  0  0  0  0
  3  2  2  0  0  0  0
  4  9  2  0  0  0  0
  4  3  1  0  0  0  0
  5  6  1  0  0  0  0
  5  4  1  0  0  0  0
  6  7  1  0  0  0  0
  7  3  1  0  0  0  0
  7  8  2  0  0  0  0
  9 10  1  0  0  0  0
 10 14  1  0  0  0  0
 10  1  2  0  0  0  0
 12  5  1  0  0  0  0
 13  5  1  0  0  0  0
 15 22  1  6  0  0  0
 15 16  1  0  0  0  0
 15 19  1  0  0  0  0
 16 17  1  0  0  0  0
 17 32  1  0  0  0  0
 17 18  1  0  0  0  0
 17 25  1  1  0  0  0
 18 26  1  0  0  0  0
 18 27  1  0  0  0  0
 19 20  1  0  0  0  0
 19 18  1  0  0  0  0
 20 21  2  0  0  0  0
 23 16  1  0  0  0  0
 24 16  1  0  0  0  0
 28 30  1  0  0  0  0
 28 15  1  0  0  0  0
 29 28  1  0  0  0  0
 31 28  1  0  0  0  0
 33 32  1  0  0  0  0
 34 39  1  0  0  0  0
 34  6  1  0  0  0  0
 35 34  2  0  0  0  0
 36 37  2  0  0  0  0
 36 35  1  0  0  0  0
 37 38  1  0  0  0  0
 38 44  1  0  0  0  0
 38 39  2  0  0  0  0
 39 43  1  0  0  0  0
 40 35  1  0  0  0  0
 41 36  1  0  0  0  0
 42 37  1  0  0  0  0
 44 45  1  6  0  0  0
 44 46  1  0  0  0  0
 44 50  1  0  0  0  0
 46 48  1  0  0  0  0
 46 47  1  0  0  0  0
 49 46  1  0  0  0  0
 50 52  1  0  0  0  0
 51 50  1  0  0  0  0
 53 50  1  0  0  0  0
 53 57  1  0  0  0  0
 54 55  1  0  0  0  0
 54 53  2  0  0  0  0
 55 56  2  0  0  0  0
 56 57  1  0  0  0  0
 57 59  1  0  0  0  0
 58 55  1  0  0  0  0
 60 62  1  0  0  0  0
 60 54  1  0  0  0  0
 61 60  1  0  0  0  0
 63 60  1  0  0  0  0
 64 65  1  0  0  0  0
 64  9  1  0  0  0  0
 66 64  1  0  0  0  0
 67 64  1  0  0  0  0
M  END
>  <MODEL>
32

>  <REMARK>
 VINA RESULT:    -6.864      4.408     10.505
 INTER + INTRA:          -9.090
 INTER:                 -10.074
 INTRA:                   0.984
 UNBOUND:                 0.984
  Name = 
  10 active torsions:
  status: ('A' for Active; 'I' for Inactive)
    1  A    between atoms: C_1  and  C_2
    2  A    between atoms: C_4  and  O_38
    3  A    between atoms: C_7  and  C_9
    4  A    between atoms: N_14  and  C_17
    5  A    between atoms: C_21  and  C_23
    6  A    between atoms: C_23  and  C_24
    7  A    between atoms: C_23  and  C_25
    8  A    between atoms: C_25  and  C_26
    9  A    between atoms: C_27  and  C_31
   10  A    between atoms: C_32  and  C_34
                            x       y       z     vdW  Elec       q    Type
                         _______ _______ _______ _____ _____    ______ ____

>  <TORSDO>
F 10

$$$$
