=
 OpenBabel07192307433D

 56 59  0  0  1  0  0  0  0  0999 V2000
    5.5100    4.4310   16.4410 C   0  0  0  0  0  0  0  0  0  0  0  0
    6.0280    5.0600   17.5810 C   0  0  0  0  0  0  0  0  0  0  0  0
    5.3630    4.9950   18.8100 C   0  0  0  0  0  0  0  0  0  0  0  0
    4.1550    4.2950   18.9410 C   0  0  0  0  0  0  0  0  0  0  0  0
    3.6240    3.6690   17.7980 C   0  0  0  0  0  0  0  0  0  0  0  0
    4.2980    3.7370   16.5660 C   0  0  0  0  0  0  0  0  0  0  0  0
    6.9670    5.6090   17.5210 H   0  0  0  0  0  0  0  0  0  0  0  0
    5.7990    5.5030   19.6700 H   0  0  0  0  0  0  0  0  0  0  0  0
    3.8520    3.2790   15.6840 H   0  0  0  0  0  0  0  0  0  0  0  0
    6.4230    3.8200   12.8080 C   0  0  0  0  0  0  0  0  0  0  0  0
    7.5330    4.6500   12.6650 C   0  0  0  0  0  0  0  0  0  0  0  0
    7.9840    5.4070   13.7480 C   0  0  0  0  0  0  0  0  0  0  0  0
    7.3270    5.3370   14.9770 C   0  0  0  0  0  0  0  0  0  0  0  0
    6.2060    4.5100   15.1470 C   0  0  0  0  0  0  0  0  0  0  0  0
    5.7690    3.7580   14.0440 C   0  0  0  0  0  0  0  0  0  0  0  0
    8.0690    4.7330   11.7250 H   0  0  0  0  0  0  0  0  0  0  0  0
    8.8480    6.0570   13.6330 H   0  0  0  0  0  0  0  0  0  0  0  0
    7.6900    5.9450   15.8030 H   0  0  0  0  0  0  0  0  0  0  0  0
    4.9080    3.0980   14.1440 H   0  0  0  0  0  0  0  0  0  0  0  0
    5.8790    3.0280   11.8350 O   0  0  0  0  0  0  0  0  0  0  0  0
    4.4600    2.9710   11.7700 C   0  0  0  0  0  0  0  0  0  0  0  0
    4.0300    2.6910   12.7370 H   0  0  0  0  0  0  0  0  0  0  0  0
    4.1280    2.2910   10.9770 H   0  0  0  0  0  0  0  0  0  0  0  0
    4.0960    3.9720   11.5230 H   0  0  0  0  0  0  0  0  0  0  0  0
    2.3180    2.9630   17.8410 C   0  0  0  0  0  0  0  0  0  0  0  0
    1.2350    3.6770   17.4120 N   0  0  0  0  0  0  0  0  0  0  0  0
    2.2190    1.8070   18.2290 O   0  0  0  0  0  0  0  0  0  0  0  0
    0.3550    3.1830   17.3400 H   0  0  0  0  0  0  0  0  0  0  0  0
    1.3260    4.5600   16.9280 H   0  0  0  0  0  0  0  0  0  0  0  0
    3.4920    4.2290   20.2960 C   0  0  0  0  0  0  0  0  0  0  0  0
    2.6030    3.5890   20.2510 H   0  0  0  0  0  0  0  0  0  0  0  0
    4.1630    3.7730   21.0340 H   0  0  0  0  0  0  0  0  0  0  0  0
    3.0970    5.5340   20.7620 N   0  0  0  0  0  0  0  0  0  0  0  0
    1.9740    6.1200   20.2290 C   0  0  0  0  0  0  0  0  0  0  0  0
    1.1860    5.5290   19.5040 O   0  0  0  0  0  0  0  0  0  0  0  0
    1.8540    7.4180   20.6460 N   0  0  0  0  0  0  0  0  0  0  0  0
    3.8790    6.1720   20.8710 H   0  0  0  0  0  0  0  0  0  0  0  0
    2.6680    7.8140   21.0870 H   0  0  0  0  0  0  0  0  0  0  0  0
    0.8710    8.3560   20.1530 C   0  0  2  0  0  0  0  0  0  0  0  0
    1.3500    9.3520   19.0790 C   0  0  0  0  0  0  0  0  0  0  0  0
    0.4080   10.5620   19.1790 C   0  0  0  0  0  0  0  0  0  0  0  0
    0.0110   10.5260   20.6230 C   0  0  0  0  0  0  0  0  0  0  0  0
   -0.5870   11.5320   21.3640 C   0  0  0  0  0  0  0  0  0  0  0  0
   -0.9050   11.2720   22.6980 C   0  0  0  0  0  0  0  0  0  0  0  0
   -0.6330   10.0180   23.2680 C   0  0  0  0  0  0  0  0  0  0  0  0
   -0.0410    9.0050   22.5100 C   0  0  0  0  0  0  0  0  0  0  0  0
    0.2820    9.2730   21.1870 C   0  0  0  0  0  0  0  0  0  0  0  0
    0.0530    7.7540   19.7370 H   0  0  0  0  0  0  0  0  0  0  0  0
    1.3460    8.9080   18.0780 H   0  0  0  0  0  0  0  0  0  0  0  0
    2.3760    9.6900   19.2620 H   0  0  0  0  0  0  0  0  0  0  0  0
    0.9220   11.4890   18.9100 H   0  0  0  0  0  0  0  0  0  0  0  0
   -0.4740   10.4280   18.5440 H   0  0  0  0  0  0  0  0  0  0  0  0
   -0.8030   12.5000   20.9230 H   0  0  0  0  0  0  0  0  0  0  0  0
   -1.3670   12.0480   23.3040 H   0  0  0  0  0  0  0  0  0  0  0  0
   -0.8840    9.8340   24.3090 H   0  0  0  0  0  0  0  0  0  0  0  0
    0.1660    8.0360   22.9510 H   0  0  0  0  0  0  0  0  0  0  0  0
  1  6  2  0  0  0  0
  1  2  1  0  0  0  0
  2  3  2  0  0  0  0
  3  4  1  0  0  0  0
  3  8  1  0  0  0  0
  4 30  1  0  0  0  0
  5 25  1  0  0  0  0
  5  4  2  0  0  0  0
  6  5  1  0  0  0  0
  7  2  1  0  0  0  0
  9  6  1  0  0  0  0
 10 15  1  0  0  0  0
 11 10  2  0  0  0  0
 11 12  1  0  0  0  0
 12 13  2  0  0  0  0
 13 14  1  0  0  0  0
 13 18  1  0  0  0  0
 14  1  1  0  0  0  0
 15 19  1  0  0  0  0
 15 14  2  0  0  0  0
 16 11  1  0  0  0  0
 17 12  1  0  0  0  0
 20 10  1  0  0  0  0
 21 20  1  0  0  0  0
 21 22  1  0  0  0  0
 23 21  1  0  0  0  0
 24 21  1  0  0  0  0
 25 27  2  0  0  0  0
 26 25  1  0  0  0  0
 28 26  1  0  0  0  0
 29 26  1  0  0  0  0
 30 33  1  0  0  0  0
 30 32  1  0  0  0  0
 31 30  1  0  0  0  0
 33 37  1  0  0  0  0
 34 36  1  0  0  0  0
 34 33  1  0  0  0  0
 35 34  2  0  0  0  0
 36 38  1  0  0  0  0
 39 48  1  6  0  0  0
 39 36  1  0  0  0  0
 39 47  1  0  0  0  0
 40 41  1  0  0  0  0
 40 50  1  0  0  0  0
 40 39  1  0  0  0  0
 41 42  1  0  0  0  0
 42 47  2  0  0  0  0
 42 43  1  0  0  0  0
 43 44  2  0  0  0  0
 44 45  1  0  0  0  0
 44 54  1  0  0  0  0
 45 55  1  0  0  0  0
 46 56  1  0  0  0  0
 46 45  2  0  0  0  0
 47 46  1  0  0  0  0
 49 40  1  0  0  0  0
 51 41  1  0  0  0  0
 52 41  1  0  0  0  0
 53 43  1  0  0  0  0
M  END
>  <MODEL>
1

>  <REMARK>
 VINA RESULT:    -8.425      0.000      0.000
 INTER + INTRA:         -12.322
 INTER:                 -11.113
 INTRA:                  -1.209
 UNBOUND:                -0.696
  Name = 
  7 active torsions:
  status: ('A' for Active; 'I' for Inactive)
    1  A    between atoms: C_1  and  O_2
    2  A    between atoms: O_2  and  C_3
    3  A    between atoms: C_7  and  C_8
    4  A    between atoms: C_11  and  C_12
    5  A    between atoms: C_12  and  N_13
    6  A    between atoms: N_16  and  C_17
    7  A    between atoms: C_26  and  C_27
                            x       y       z     vdW  Elec       q    Type
                         _______ _______ _______ _____ _____    ______ ____

>  <TORSDO>
F 7

$$$$
=
 OpenBabel07192307433D

 56 59  0  0  1  0  0  0  0  0999 V2000
    4.2350    5.3410   17.6990 C   0  0  0  0  0  0  0  0  0  0  0  0
    3.7970    6.6580   17.8900 C   0  0  0  0  0  0  0  0  0  0  0  0
    2.8620    6.9750   18.8820 C   0  0  0  0  0  0  0  0  0  0  0  0
    2.3360    5.9810   19.7210 C   0  0  0  0  0  0  0  0  0  0  0  0
    2.7640    4.6550   19.5280 C   0  0  0  0  0  0  0  0  0  0  0  0
    3.7040    4.3440   18.5300 C   0  0  0  0  0  0  0  0  0  0  0  0
    4.1860    7.4600   17.2630 H   0  0  0  0  0  0  0  0  0  0  0  0
    2.5450    8.0120   18.9940 H   0  0  0  0  0  0  0  0  0  0  0  0
    3.9950    3.3070   18.3700 H   0  0  0  0  0  0  0  0  0  0  0  0
    5.6990    4.3020   14.3560 C   0  0  0  0  0  0  0  0  0  0  0  0
    7.0650    4.3700   14.6250 C   0  0  0  0  0  0  0  0  0  0  0  0
    7.5080    4.7550   15.8920 C   0  0  0  0  0  0  0  0  0  0  0  0
    6.5890    5.0710   16.8930 C   0  0  0  0  0  0  0  0  0  0  0  0
    5.2090    5.0110   16.6470 C   0  0  0  0  0  0  0  0  0  0  0  0
    4.7850    4.6230   15.3660 C   0  0  0  0  0  0  0  0  0  0  0  0
    7.8100    4.1340   13.8720 H   0  0  0  0  0  0  0  0  0  0  0  0
    8.5740    4.8110   16.0980 H   0  0  0  0  0  0  0  0  0  0  0  0
    6.9590    5.3780   17.8690 H   0  0  0  0  0  0  0  0  0  0  0  0
    3.7200    4.5560   15.1430 H   0  0  0  0  0  0  0  0  0  0  0  0
    5.1300    3.9410   13.1660 O   0  0  0  0  0  0  0  0  0  0  0  0
    5.9570    3.2430   12.2420 C   0  0  0  0  0  0  0  0  0  0  0  0
    5.5450    2.2570   12.0070 H   0  0  0  0  0  0  0  0  0  0  0  0
    6.9850    3.1650   12.6140 H   0  0  0  0  0  0  0  0  0  0  0  0
    5.9830    3.8220   11.3140 H   0  0  0  0  0  0  0  0  0  0  0  0
    2.2050    3.5380   20.3320 C   0  0  0  0  0  0  0  0  0  0  0  0
    1.0460    2.9860   19.8680 N   0  0  0  0  0  0  0  0  0  0  0  0
    2.7560    3.1320   21.3460 O   0  0  0  0  0  0  0  0  0  0  0  0
    0.7040    2.1610   20.3440 H   0  0  0  0  0  0  0  0  0  0  0  0
    0.6790    3.1890   18.9480 H   0  0  0  0  0  0  0  0  0  0  0  0
    1.3530    6.3780   20.7960 C   0  0  0  0  0  0  0  0  0  0  0  0
    0.3300    6.3510   20.4030 H   0  0  0  0  0  0  0  0  0  0  0  0
    1.3830    5.6660   21.6300 H   0  0  0  0  0  0  0  0  0  0  0  0
    1.6170    7.7030   21.2990 N   0  0  0  0  0  0  0  0  0  0  0  0
    0.5620    8.5570   21.5150 C   0  0  0  0  0  0  0  0  0  0  0  0
   -0.6080    8.2040   21.4700 O   0  0  0  0  0  0  0  0  0  0  0  0
    1.0040    9.8170   21.8120 N   0  0  0  0  0  0  0  0  0  0  0  0
    2.4180    8.1450   20.8570 H   0  0  0  0  0  0  0  0  0  0  0  0
    1.9790    9.9930   21.6320 H   0  0  0  0  0  0  0  0  0  0  0  0
    0.1560   10.9800   21.9450 C   0  0  2  0  0  0  0  0  0  0  0  0
   -0.9400   10.9100   23.0260 C   0  0  0  0  0  0  0  0  0  0  0  0
   -2.0320   11.8950   22.5800 C   0  0  0  0  0  0  0  0  0  0  0  0
   -1.8780   11.8730   21.0900 C   0  0  0  0  0  0  0  0  0  0  0  0
   -2.7720   12.3330   20.1370 C   0  0  0  0  0  0  0  0  0  0  0  0
   -2.4110   12.2440   18.7910 C   0  0  0  0  0  0  0  0  0  0  0  0
   -1.1660   11.7110   18.4180 C   0  0  0  0  0  0  0  0  0  0  0  0
   -0.2660   11.2610   19.3870 C   0  0  0  0  0  0  0  0  0  0  0  0
   -0.6360   11.3420   20.7210 C   0  0  0  0  0  0  0  0  0  0  0  0
    0.8220   11.8220   22.1730 H   0  0  0  0  0  0  0  0  0  0  0  0
   -0.5510   11.1500   24.0210 H   0  0  0  0  0  0  0  0  0  0  0  0
   -1.3800    9.9090   23.1000 H   0  0  0  0  0  0  0  0  0  0  0  0
   -3.0230   11.5630   22.9020 H   0  0  0  0  0  0  0  0  0  0  0  0
   -1.8340   12.9020   22.9620 H   0  0  0  0  0  0  0  0  0  0  0  0
   -3.7320   12.7500   20.4250 H   0  0  0  0  0  0  0  0  0  0  0  0
   -3.0980   12.5900   18.0240 H   0  0  0  0  0  0  0  0  0  0  0  0
   -0.9020   11.6470   17.3660 H   0  0  0  0  0  0  0  0  0  0  0  0
    0.6970   10.8520   19.0960 H   0  0  0  0  0  0  0  0  0  0  0  0
  1  2  2  0  0  0  0
  1  6  1  0  0  0  0
  2  3  1  0  0  0  0
  3  8  1  0  0  0  0
  3  4  2  0  0  0  0
  4 30  1  0  0  0  0
  5  4  1  0  0  0  0
  5 25  1  0  0  0  0
  6  5  2  0  0  0  0
  7  2  1  0  0  0  0
  9  6  1  0  0  0  0
 10 11  2  0  0  0  0
 10 15  1  0  0  0  0
 11 12  1  0  0  0  0
 12 17  1  0  0  0  0
 12 13  2  0  0  0  0
 13 18  1  0  0  0  0
 14 13  1  0  0  0  0
 14  1  1  0  0  0  0
 15 14  2  0  0  0  0
 16 11  1  0  0  0  0
 19 15  1  0  0  0  0
 20 10  1  0  0  0  0
 21 23  1  0  0  0  0
 21 20  1  0  0  0  0
 22 21  1  0  0  0  0
 24 21  1  0  0  0  0
 25 27  2  0  0  0  0
 26 25  1  0  0  0  0
 26 28  1  0  0  0  0
 29 26  1  0  0  0  0
 30 33  1  0  0  0  0
 30 32  1  0  0  0  0
 31 30  1  0  0  0  0
 33 34  1  0  0  0  0
 34 36  1  0  0  0  0
 35 34  2  0  0  0  0
 36 39  1  0  0  0  0
 37 33  1  0  0  0  0
 38 36  1  0  0  0  0
 39 48  1  1  0  0  0
 39 40  1  0  0  0  0
 40 50  1  0  0  0  0
 40 49  1  0  0  0  0
 41 51  1  0  0  0  0
 41 52  1  0  0  0  0
 41 40  1  0  0  0  0
 42 41  1  0  0  0  0
 43 53  1  0  0  0  0
 43 42  2  0  0  0  0
 44 43  1  0  0  0  0
 45 44  2  0  0  0  0
 45 46  1  0  0  0  0
 46 47  2  0  0  0  0
 47 42  1  0  0  0  0
 47 39  1  0  0  0  0
 54 44  1  0  0  0  0
 55 45  1  0  0  0  0
 56 46  1  0  0  0  0
M  END
>  <MODEL>
2

>  <REMARK>
 VINA RESULT:    -8.277      1.762      2.960
 INTER + INTRA:         -12.119
 INTER:                 -11.436
 INTRA:                  -0.682
 UNBOUND:                -0.696
  Name = 
  7 active torsions:
  status: ('A' for Active; 'I' for Inactive)
    1  A    between atoms: C_1  and  O_2
    2  A    between atoms: O_2  and  C_3
    3  A    between atoms: C_7  and  C_8
    4  A    between atoms: C_11  and  C_12
    5  A    between atoms: C_12  and  N_13
    6  A    between atoms: N_16  and  C_17
    7  A    between atoms: C_26  and  C_27
                            x       y       z     vdW  Elec       q    Type
                         _______ _______ _______ _____ _____    ______ ____

>  <TORSDO>
F 7

$$$$
=
 OpenBabel07192307433D

 56 59  0  0  1  0  0  0  0  0999 V2000
   -2.0330   12.1490   21.2220 C   0  0  0  0  0  0  0  0  0  0  0  0
   -0.8060   11.6790   21.7090 C   0  0  0  0  0  0  0  0  0  0  0  0
    0.0670   10.9500   20.8920 C   0  0  0  0  0  0  0  0  0  0  0  0
   -0.2600   10.6680   19.5580 C   0  0  0  0  0  0  0  0  0  0  0  0
   -1.4950   11.1280   19.0650 C   0  0  0  0  0  0  0  0  0  0  0  0
   -2.3670   11.8610   19.8900 C   0  0  0  0  0  0  0  0  0  0  0  0
   -0.5130   11.8820   22.7380 H   0  0  0  0  0  0  0  0  0  0  0  0
    1.0090   10.6000   21.3130 H   0  0  0  0  0  0  0  0  0  0  0  0
   -3.3340   12.1750   19.5030 H   0  0  0  0  0  0  0  0  0  0  0  0
   -3.3980   14.1110   24.1690 C   0  0  0  0  0  0  0  0  0  0  0  0
   -4.7060   14.3510   23.7520 C   0  0  0  0  0  0  0  0  0  0  0  0
   -5.1430   13.8760   22.5140 C   0  0  0  0  0  0  0  0  0  0  0  0
   -4.2740   13.1590   21.6890 C   0  0  0  0  0  0  0  0  0  0  0  0
   -2.9530   12.9050   22.0860 C   0  0  0  0  0  0  0  0  0  0  0  0
   -2.5340   13.3930   23.3340 C   0  0  0  0  0  0  0  0  0  0  0  0
   -5.4100   14.9060   24.3640 H   0  0  0  0  0  0  0  0  0  0  0  0
   -6.1620   14.0680   22.1890 H   0  0  0  0  0  0  0  0  0  0  0  0
   -4.6340   12.8080   20.7240 H   0  0  0  0  0  0  0  0  0  0  0  0
   -1.5170   13.2050   23.6770 H   0  0  0  0  0  0  0  0  0  0  0  0
   -2.8430   14.5150   25.3520 O   0  0  0  0  0  0  0  0  0  0  0  0
   -1.6380   15.2670   25.2740 C   0  0  0  0  0  0  0  0  0  0  0  0
   -0.9360   14.8160   24.5660 H   0  0  0  0  0  0  0  0  0  0  0  0
   -1.1830   15.3860   26.2630 H   0  0  0  0  0  0  0  0  0  0  0  0
   -1.8910   16.2640   24.9010 H   0  0  0  0  0  0  0  0  0  0  0  0
   -1.9400   10.8150   17.6840 C   0  0  0  0  0  0  0  0  0  0  0  0
   -1.8110   11.8200   16.7680 N   0  0  0  0  0  0  0  0  0  0  0  0
   -2.3890    9.7170   17.3810 O   0  0  0  0  0  0  0  0  0  0  0  0
   -2.0140   11.5950   15.8030 H   0  0  0  0  0  0  0  0  0  0  0  0
   -1.2840   12.6620   16.9590 H   0  0  0  0  0  0  0  0  0  0  0  0
    0.7290    9.9050   18.7100 C   0  0  0  0  0  0  0  0  0  0  0  0
    0.2130    9.4150   17.8750 H   0  0  0  0  0  0  0  0  0  0  0  0
    1.4620   10.5860   18.2610 H   0  0  0  0  0  0  0  0  0  0  0  0
    1.4250    8.9000   19.4730 N   0  0  0  0  0  0  0  0  0  0  0  0
    2.2130    7.9880   18.8130 C   0  0  0  0  0  0  0  0  0  0  0  0
    2.5000    8.0810   17.6280 O   0  0  0  0  0  0  0  0  0  0  0  0
    2.6450    7.0070   19.6630 N   0  0  0  0  0  0  0  0  0  0  0  0
    0.8560    8.4920   20.2090 H   0  0  0  0  0  0  0  0  0  0  0  0
    2.1810    6.9650   20.5560 H   0  0  0  0  0  0  0  0  0  0  0  0
    3.3640    5.8200   19.2580 C   0  0  2  0  0  0  0  0  0  0  0  0
    4.0830    5.8840   17.8970 C   0  0  0  0  0  0  0  0  0  0  0  0
    4.2110    4.4280   17.4220 C   0  0  0  0  0  0  0  0  0  0  0  0
    3.0230    3.7860   18.0700 C   0  0  0  0  0  0  0  0  0  0  0  0
    2.4530    2.5600   17.7710 C   0  0  0  0  0  0  0  0  0  0  0  0
    1.3600    2.1350   18.5290 C   0  0  0  0  0  0  0  0  0  0  0  0
    0.8610    2.9300   19.5740 C   0  0  0  0  0  0  0  0  0  0  0  0
    1.4500    4.1600   19.8760 C   0  0  0  0  0  0  0  0  0  0  0  0
    2.5290    4.5810   19.1120 C   0  0  0  0  0  0  0  0  0  0  0  0
    4.1090    5.6300   20.0420 H   0  0  0  0  0  0  0  0  0  0  0  0
    5.0560    6.3810   17.9700 H   0  0  0  0  0  0  0  0  0  0  0  0
    3.5050    6.4460   17.1540 H   0  0  0  0  0  0  0  0  0  0  0  0
    4.1780    4.3620   16.3310 H   0  0  0  0  0  0  0  0  0  0  0  0
    5.1340    3.9720   17.7950 H   0  0  0  0  0  0  0  0  0  0  0  0
    2.8410    1.9420   16.9670 H   0  0  0  0  0  0  0  0  0  0  0  0
    0.8890    1.1800   18.3090 H   0  0  0  0  0  0  0  0  0  0  0  0
    0.0080    2.5850   20.1520 H   0  0  0  0  0  0  0  0  0  0  0  0
    1.0640    4.7710   20.6850 H   0  0  0  0  0  0  0  0  0  0  0  0
  1  2  1  0  0  0  0
  1 14  1  0  0  0  0
  2  7  1  0  0  0  0
  3  8  1  0  0  0  0
  3  2  2  0  0  0  0
  4  3  1  0  0  0  0
  5  4  2  0  0  0  0
  5  6  1  0  0  0  0
  6  1  2  0  0  0  0
  9  6  1  0  0  0  0
 10 20  1  0  0  0  0
 11 10  1  0  0  0  0
 11 16  1  0  0  0  0
 12 11  2  0  0  0  0
 13 14  2  0  0  0  0
 13 12  1  0  0  0  0
 14 15  1  0  0  0  0
 15 19  1  0  0  0  0
 15 10  2  0  0  0  0
 17 12  1  0  0  0  0
 18 13  1  0  0  0  0
 21 20  1  0  0  0  0
 21 23  1  0  0  0  0
 22 21  1  0  0  0  0
 24 21  1  0  0  0  0
 25  5  1  0  0  0  0
 26 29  1  0  0  0  0
 26 25  1  0  0  0  0
 27 25  2  0  0  0  0
 28 26  1  0  0  0  0
 30 33  1  0  0  0  0
 30  4  1  0  0  0  0
 31 30  1  0  0  0  0
 32 30  1  0  0  0  0
 33 37  1  0  0  0  0
 34 33  1  0  0  0  0
 34 36  1  0  0  0  0
 35 34  2  0  0  0  0
 36 38  1  0  0  0  0
 39 36  1  0  0  0  0
 39 48  1  1  0  0  0
 40 49  1  0  0  0  0
 40 39  1  0  0  0  0
 41 52  1  0  0  0  0
 41 40  1  0  0  0  0
 41 42  1  0  0  0  0
 42 47  1  0  0  0  0
 43 42  2  0  0  0  0
 43 44  1  0  0  0  0
 44 45  2  0  0  0  0
 45 46  1  0  0  0  0
 45 55  1  0  0  0  0
 46 56  1  0  0  0  0
 47 39  1  0  0  0  0
 47 46  2  0  0  0  0
 50 40  1  0  0  0  0
 51 41  1  0  0  0  0
 53 43  1  0  0  0  0
 54 44  1  0  0  0  0
M  END
>  <MODEL>
3

>  <REMARK>
 VINA RESULT:    -8.154      3.580     11.157
 INTER + INTRA:         -11.948
 INTER:                 -11.630
 INTRA:                  -0.319
 UNBOUND:                -0.696
  Name = 
  7 active torsions:
  status: ('A' for Active; 'I' for Inactive)
    1  A    between atoms: C_1  and  O_2
    2  A    between atoms: O_2  and  C_3
    3  A    between atoms: C_7  and  C_8
    4  A    between atoms: C_11  and  C_12
    5  A    between atoms: C_12  and  N_13
    6  A    between atoms: N_16  and  C_17
    7  A    between atoms: C_26  and  C_27
                            x       y       z     vdW  Elec       q    Type
                         _______ _______ _______ _____ _____    ______ ____

>  <TORSDO>
F 7

$$$$
=
 OpenBabel07192307433D

 56 59  0  0  1  0  0  0  0  0999 V2000
    4.0250    5.5530   18.1700 C   0  0  0  0  0  0  0  0  0  0  0  0
    3.6010    6.8880   18.1760 C   0  0  0  0  0  0  0  0  0  0  0  0
    2.6210    7.3340   19.0710 C   0  0  0  0  0  0  0  0  0  0  0  0
    2.0330    6.4560   19.9930 C   0  0  0  0  0  0  0  0  0  0  0  0
    2.4470    5.1110   19.9860 C   0  0  0  0  0  0  0  0  0  0  0  0
    3.4330    4.6700   19.0850 C   0  0  0  0  0  0  0  0  0  0  0  0
    4.0370    7.6030   17.4790 H   0  0  0  0  0  0  0  0  0  0  0  0
    2.3180    8.3800   19.0380 H   0  0  0  0  0  0  0  0  0  0  0  0
    3.7120    3.6180   19.0680 H   0  0  0  0  0  0  0  0  0  0  0  0
    5.6680    4.3080   14.9840 C   0  0  0  0  0  0  0  0  0  0  0  0
    6.9940    4.1840   15.3940 C   0  0  0  0  0  0  0  0  0  0  0  0
    7.3530    4.5060   16.7040 C   0  0  0  0  0  0  0  0  0  0  0  0
    6.3880    4.9510   17.6090 C   0  0  0  0  0  0  0  0  0  0  0  0
    5.0470    5.0850   17.2210 C   0  0  0  0  0  0  0  0  0  0  0  0
    4.7070    4.7580   15.8980 C   0  0  0  0  0  0  0  0  0  0  0  0
    7.7730    3.8430   14.7190 H   0  0  0  0  0  0  0  0  0  0  0  0
    8.3890    4.4120   17.0200 H   0  0  0  0  0  0  0  0  0  0  0  0
    6.6940    5.2060   18.6210 H   0  0  0  0  0  0  0  0  0  0  0  0
    3.6730    4.8410   15.5660 H   0  0  0  0  0  0  0  0  0  0  0  0
    5.1810    4.0270   13.7370 O   0  0  0  0  0  0  0  0  0  0  0  0
    6.1160    3.5710   12.7680 C   0  0  0  0  0  0  0  0  0  0  0  0
    5.6280    2.9600   12.0030 H   0  0  0  0  0  0  0  0  0  0  0  0
    6.9420    3.0290   13.2420 H   0  0  0  0  0  0  0  0  0  0  0  0
    6.5380    4.4500   12.2710 H   0  0  0  0  0  0  0  0  0  0  0  0
    1.8260    4.1080   20.8870 C   0  0  0  0  0  0  0  0  0  0  0  0
    0.6630    3.5420   20.4460 N   0  0  0  0  0  0  0  0  0  0  0  0
    2.3310    3.7990   21.9580 O   0  0  0  0  0  0  0  0  0  0  0  0
    0.2790    2.7860   20.9980 H   0  0  0  0  0  0  0  0  0  0  0  0
    0.3330    3.6540   19.4980 H   0  0  0  0  0  0  0  0  0  0  0  0
    1.0030    6.9930   20.9570 C   0  0  0  0  0  0  0  0  0  0  0  0
    0.0150    7.0150   20.4820 H   0  0  0  0  0  0  0  0  0  0  0  0
    0.9100    6.3360   21.8310 H   0  0  0  0  0  0  0  0  0  0  0  0
    1.3290    8.3250   21.4030 N   0  0  0  0  0  0  0  0  0  0  0  0
    0.5310    9.3720   21.0110 C   0  0  0  0  0  0  0  0  0  0  0  0
   -0.5440    9.2240   20.4470 O   0  0  0  0  0  0  0  0  0  0  0  0
    1.0860   10.5710   21.3670 N   0  0  0  0  0  0  0  0  0  0  0  0
    2.3230    8.5280   21.3570 H   0  0  0  0  0  0  0  0  0  0  0  0
    2.0500   10.5380   21.6580 H   0  0  0  0  0  0  0  0  0  0  0  0
    0.5780   11.8660   20.9740 C   0  0  2  0  0  0  0  0  0  0  0  0
    1.6230   12.9780   20.7610 C   0  0  0  0  0  0  0  0  0  0  0  0
    0.8740   14.3030   20.9750 C   0  0  0  0  0  0  0  0  0  0  0  0
   -0.2000   13.8990   21.9370 C   0  0  0  0  0  0  0  0  0  0  0  0
   -0.9970   14.7230   22.7150 C   0  0  0  0  0  0  0  0  0  0  0  0
   -1.9690   14.1320   23.5250 C   0  0  0  0  0  0  0  0  0  0  0  0
   -2.1370   12.7380   23.5410 C   0  0  0  0  0  0  0  0  0  0  0  0
   -1.3380   11.9160   22.7440 C   0  0  0  0  0  0  0  0  0  0  0  0
   -0.3670   12.5080   21.9490 C   0  0  0  0  0  0  0  0  0  0  0  0
    0.0330   11.7100   20.0350 H   0  0  0  0  0  0  0  0  0  0  0  0
    2.0860   12.9220   19.7700 H   0  0  0  0  0  0  0  0  0  0  0  0
    2.4410   12.9170   21.4880 H   0  0  0  0  0  0  0  0  0  0  0  0
    1.5350   15.0710   21.3860 H   0  0  0  0  0  0  0  0  0  0  0  0
    0.4270   14.6580   20.0410 H   0  0  0  0  0  0  0  0  0  0  0  0
   -0.8710   15.8010   22.7000 H   0  0  0  0  0  0  0  0  0  0  0  0
   -2.6010   14.7560   24.1520 H   0  0  0  0  0  0  0  0  0  0  0  0
   -2.8960   12.2950   24.1800 H   0  0  0  0  0  0  0  0  0  0  0  0
   -1.4720   10.8390   22.7550 H   0  0  0  0  0  0  0  0  0  0  0  0
  1  2  2  0  0  0  0
  1  6  1  0  0  0  0
  2  3  1  0  0  0  0
  3  4  2  0  0  0  0
  4 30  1  0  0  0  0
  5  4  1  0  0  0  0
  5 25  1  0  0  0  0
  6  5  2  0  0  0  0
  7  2  1  0  0  0  0
  8  3  1  0  0  0  0
  9  6  1  0  0  0  0
 10 11  2  0  0  0  0
 10 15  1  0  0  0  0
 11 12  1  0  0  0  0
 12 17  1  0  0  0  0
 12 13  2  0  0  0  0
 13 18  1  0  0  0  0
 14 13  1  0  0  0  0
 14  1  1  0  0  0  0
 15 14  2  0  0  0  0
 16 11  1  0  0  0  0
 19 15  1  0  0  0  0
 20 10  1  0  0  0  0
 21 23  1  0  0  0  0
 21 20  1  0  0  0  0
 22 21  1  0  0  0  0
 24 21  1  0  0  0  0
 25 27  2  0  0  0  0
 26 25  1  0  0  0  0
 26 28  1  0  0  0  0
 29 26  1  0  0  0  0
 30 33  1  0  0  0  0
 30 32  1  0  0  0  0
 31 30  1  0  0  0  0
 34 36  1  0  0  0  0
 34 33  1  0  0  0  0
 35 34  2  0  0  0  0
 36 38  1  0  0  0  0
 37 33  1  0  0  0  0
 39 48  1  6  0  0  0
 39 36  1  0  0  0  0
 39 47  1  0  0  0  0
 40 39  1  0  0  0  0
 40 41  1  0  0  0  0
 40 50  1  0  0  0  0
 41 51  1  0  0  0  0
 41 42  1  0  0  0  0
 42 47  2  0  0  0  0
 42 43  1  0  0  0  0
 43 44  2  0  0  0  0
 44 45  1  0  0  0  0
 44 54  1  0  0  0  0
 45 55  1  0  0  0  0
 46 56  1  0  0  0  0
 46 45  2  0  0  0  0
 47 46  1  0  0  0  0
 49 40  1  0  0  0  0
 52 41  1  0  0  0  0
 53 43  1  0  0  0  0
M  END
>  <MODEL>
4

>  <REMARK>
 VINA RESULT:    -8.094      2.087      3.247
 INTER + INTRA:         -11.865
 INTER:                 -11.002
 INTRA:                  -0.863
 UNBOUND:                -0.696
  Name = 
  7 active torsions:
  status: ('A' for Active; 'I' for Inactive)
    1  A    between atoms: C_1  and  O_2
    2  A    between atoms: O_2  and  C_3
    3  A    between atoms: C_7  and  C_8
    4  A    between atoms: C_11  and  C_12
    5  A    between atoms: C_12  and  N_13
    6  A    between atoms: N_16  and  C_17
    7  A    between atoms: C_26  and  C_27
                            x       y       z     vdW  Elec       q    Type
                         _______ _______ _______ _____ _____    ______ ____

>  <TORSDO>
F 7

$$$$
=
 OpenBabel07192307433D

 56 59  0  0  1  0  0  0  0  0999 V2000
   -1.0860   12.3170   21.4730 C   0  0  0  0  0  0  0  0  0  0  0  0
    0.1610   11.7300   21.7290 C   0  0  0  0  0  0  0  0  0  0  0  0
    0.7620   10.8710   20.8020 C   0  0  0  0  0  0  0  0  0  0  0  0
    0.1340   10.5710   19.5830 C   0  0  0  0  0  0  0  0  0  0  0  0
   -1.1220   11.1490   19.3250 C   0  0  0  0  0  0  0  0  0  0  0  0
   -1.7200   12.0120   20.2600 C   0  0  0  0  0  0  0  0  0  0  0  0
    0.6830   11.9430   22.6610 H   0  0  0  0  0  0  0  0  0  0  0  0
    1.7300   10.4330   21.0430 H   0  0  0  0  0  0  0  0  0  0  0  0
   -2.7090   12.4190   20.0590 H   0  0  0  0  0  0  0  0  0  0  0  0
   -3.6610   13.8410   23.8070 C   0  0  0  0  0  0  0  0  0  0  0  0
   -2.9480   14.9170   24.3310 C   0  0  0  0  0  0  0  0  0  0  0  0
   -1.6310   15.1470   23.9260 C   0  0  0  0  0  0  0  0  0  0  0  0
   -1.0240   14.3010   22.9960 C   0  0  0  0  0  0  0  0  0  0  0  0
   -1.7200   13.2110   22.4550 C   0  0  0  0  0  0  0  0  0  0  0  0
   -3.0420   12.9970   22.8770 C   0  0  0  0  0  0  0  0  0  0  0  0
   -3.3850   15.5950   25.0570 H   0  0  0  0  0  0  0  0  0  0  0  0
   -1.0760   15.9850   24.3390 H   0  0  0  0  0  0  0  0  0  0  0  0
    0.0060   14.4940   22.7040 H   0  0  0  0  0  0  0  0  0  0  0  0
   -3.6150   12.1650   22.4690 H   0  0  0  0  0  0  0  0  0  0  0  0
   -4.9500   13.5030   24.1140 O   0  0  0  0  0  0  0  0  0  0  0  0
   -5.1470   12.2800   24.8110 C   0  0  0  0  0  0  0  0  0  0  0  0
   -4.4940   12.2140   25.6870 H   0  0  0  0  0  0  0  0  0  0  0  0
   -5.0070   11.4200   24.1470 H   0  0  0  0  0  0  0  0  0  0  0  0
   -6.1820   12.2610   25.1660 H   0  0  0  0  0  0  0  0  0  0  0  0
   -1.8780   10.8300   18.0870 C   0  0  0  0  0  0  0  0  0  0  0  0
   -1.7030   11.6860   17.0380 N   0  0  0  0  0  0  0  0  0  0  0  0
   -2.6080    9.8510   18.0090 O   0  0  0  0  0  0  0  0  0  0  0  0
   -2.1300   11.4310   16.1570 H   0  0  0  0  0  0  0  0  0  0  0  0
   -0.9760   12.3890   17.0280 H   0  0  0  0  0  0  0  0  0  0  0  0
    0.8380    9.6630   18.6040 C   0  0  0  0  0  0  0  0  0  0  0  0
    0.1100    9.0190   18.0950 H   0  0  0  0  0  0  0  0  0  0  0  0
    1.3330   10.2490   17.8190 H   0  0  0  0  0  0  0  0  0  0  0  0
    1.8160    8.8280   19.2550 N   0  0  0  0  0  0  0  0  0  0  0  0
    2.3120    7.7360   18.5850 C   0  0  0  0  0  0  0  0  0  0  0  0
    2.1040    7.5230   17.3990 O   0  0  0  0  0  0  0  0  0  0  0  0
    3.0800    6.9610   19.4120 N   0  0  0  0  0  0  0  0  0  0  0  0
    1.5980    8.6460   20.2310 H   0  0  0  0  0  0  0  0  0  0  0  0
    3.0070    7.1650   20.3950 H   0  0  0  0  0  0  0  0  0  0  0  0
    3.6240    5.6690   19.0620 C   0  0  2  0  0  0  0  0  0  0  0  0
    4.2450    5.5420   17.6580 C   0  0  0  0  0  0  0  0  0  0  0  0
    4.1670    4.0500   17.2980 C   0  0  0  0  0  0  0  0  0  0  0  0
    2.9610    3.6090   18.0700 C   0  0  0  0  0  0  0  0  0  0  0  0
    2.2310    2.4430   17.9100 C   0  0  0  0  0  0  0  0  0  0  0  0
    1.1530    2.2130   18.7670 C   0  0  0  0  0  0  0  0  0  0  0  0
    0.8270    3.1390   19.7710 C   0  0  0  0  0  0  0  0  0  0  0  0
    1.5770    4.3060   19.9330 C   0  0  0  0  0  0  0  0  0  0  0  0
    2.6400    4.5330   19.0710 C   0  0  0  0  0  0  0  0  0  0  0  0
    4.3950    5.4470   19.8110 H   0  0  0  0  0  0  0  0  0  0  0  0
    5.2730    5.9190   17.6290 H   0  0  0  0  0  0  0  0  0  0  0  0
    3.6860    6.1130   16.9080 H   0  0  0  0  0  0  0  0  0  0  0  0
    4.0480    3.9060   16.2200 H   0  0  0  0  0  0  0  0  0  0  0  0
    5.0540    3.5130   17.6490 H   0  0  0  0  0  0  0  0  0  0  0  0
    2.4850    1.7240   17.1370 H   0  0  0  0  0  0  0  0  0  0  0  0
    0.5590    1.3100   18.6570 H   0  0  0  0  0  0  0  0  0  0  0  0
   -0.0170    2.9460   20.4270 H   0  0  0  0  0  0  0  0  0  0  0  0
    1.3250    5.0190   20.7120 H   0  0  0  0  0  0  0  0  0  0  0  0
  1  2  1  0  0  0  0
  1 14  1  0  0  0  0
  2  7  1  0  0  0  0
  3  8  1  0  0  0  0
  3  2  2  0  0  0  0
  4  3  1  0  0  0  0
  5  4  2  0  0  0  0
  5  6  1  0  0  0  0
  6  1  2  0  0  0  0
  9  6  1  0  0  0  0
 10 20  1  0  0  0  0
 10 11  1  0  0  0  0
 11 16  1  0  0  0  0
 12 11  2  0  0  0  0
 12 17  1  0  0  0  0
 13 12  1  0  0  0  0
 14 15  1  0  0  0  0
 14 13  2  0  0  0  0
 15 10  2  0  0  0  0
 18 13  1  0  0  0  0
 19 15  1  0  0  0  0
 20 21  1  0  0  0  0
 21 24  1  0  0  0  0
 21 22  1  0  0  0  0
 23 21  1  0  0  0  0
 25  5  1  0  0  0  0
 26 25  1  0  0  0  0
 27 25  2  0  0  0  0
 28 26  1  0  0  0  0
 29 26  1  0  0  0  0
 30 33  1  0  0  0  0
 30  4  1  0  0  0  0
 31 30  1  0  0  0  0
 32 30  1  0  0  0  0
 33 37  1  0  0  0  0
 34 33  1  0  0  0  0
 34 36  1  0  0  0  0
 35 34  2  0  0  0  0
 36 38  1  0  0  0  0
 39 47  1  0  0  0  0
 39 36  1  0  0  0  0
 39 48  1  1  0  0  0
 40 39  1  0  0  0  0
 41 52  1  0  0  0  0
 41 40  1  0  0  0  0
 41 42  1  0  0  0  0
 42 47  1  0  0  0  0
 43 42  2  0  0  0  0
 43 44  1  0  0  0  0
 44 45  2  0  0  0  0
 45 46  1  0  0  0  0
 45 55  1  0  0  0  0
 46 56  1  0  0  0  0
 47 46  2  0  0  0  0
 49 40  1  0  0  0  0
 50 40  1  0  0  0  0
 51 41  1  0  0  0  0
 53 43  1  0  0  0  0
 54 44  1  0  0  0  0
M  END
>  <MODEL>
5

>  <REMARK>
 VINA RESULT:    -7.914      3.386     10.907
 INTER + INTRA:         -11.617
 INTER:                 -10.986
 INTRA:                  -0.632
 UNBOUND:                -0.696
  Name = 
  7 active torsions:
  status: ('A' for Active; 'I' for Inactive)
    1  A    between atoms: C_1  and  O_2
    2  A    between atoms: O_2  and  C_3
    3  A    between atoms: C_7  and  C_8
    4  A    between atoms: C_11  and  C_12
    5  A    between atoms: C_12  and  N_13
    6  A    between atoms: N_16  and  C_17
    7  A    between atoms: C_26  and  C_27
                            x       y       z     vdW  Elec       q    Type
                         _______ _______ _______ _____ _____    ______ ____

>  <TORSDO>
F 7

$$$$
=
 OpenBabel07192307433D

 56 59  0  0  1  0  0  0  0  0999 V2000
    2.3530    7.4420   18.6100 C   0  0  0  0  0  0  0  0  0  0  0  0
    2.1370    8.5080   17.7270 C   0  0  0  0  0  0  0  0  0  0  0  0
    1.4640    9.6640   18.1380 C   0  0  0  0  0  0  0  0  0  0  0  0
    0.9840    9.7930   19.4500 C   0  0  0  0  0  0  0  0  0  0  0  0
    1.1890    8.7210   20.3390 C   0  0  0  0  0  0  0  0  0  0  0  0
    1.8670    7.5630   19.9210 C   0  0  0  0  0  0  0  0  0  0  0  0
    2.4990    8.4490   16.7020 H   0  0  0  0  0  0  0  0  0  0  0  0
    1.3140   10.4680   17.4180 H   0  0  0  0  0  0  0  0  0  0  0  0
    1.9820    6.7300   20.6110 H   0  0  0  0  0  0  0  0  0  0  0  0
    3.0440    3.8140   17.7360 C   0  0  0  0  0  0  0  0  0  0  0  0
    4.3790    3.8810   17.3400 C   0  0  0  0  0  0  0  0  0  0  0  0
    5.0520    5.1040   17.3570 C   0  0  0  0  0  0  0  0  0  0  0  0
    4.3940    6.2640   17.7700 C   0  0  0  0  0  0  0  0  0  0  0  0
    3.0510    6.2230   18.1730 C   0  0  0  0  0  0  0  0  0  0  0  0
    2.3920    4.9830   18.1460 C   0  0  0  0  0  0  0  0  0  0  0  0
    4.9240    3.0020   17.0110 H   0  0  0  0  0  0  0  0  0  0  0  0
    6.0920    5.1540   17.0430 H   0  0  0  0  0  0  0  0  0  0  0  0
    4.9370    7.2070   17.7640 H   0  0  0  0  0  0  0  0  0  0  0  0
    1.3520    4.9140   18.4620 H   0  0  0  0  0  0  0  0  0  0  0  0
    2.2700    2.6880   17.7690 O   0  0  0  0  0  0  0  0  0  0  0  0
    1.2700    2.6240   18.7790 C   0  0  0  0  0  0  0  0  0  0  0  0
    0.9440    1.5930   18.9480 H   0  0  0  0  0  0  0  0  0  0  0  0
    0.4220    3.2730   18.5350 H   0  0  0  0  0  0  0  0  0  0  0  0
    1.7120    2.9900   19.7100 H   0  0  0  0  0  0  0  0  0  0  0  0
    0.6550    8.7550   21.7240 C   0  0  0  0  0  0  0  0  0  0  0  0
   -0.6020    8.2500   21.8960 N   0  0  0  0  0  0  0  0  0  0  0  0
    1.3070    9.2020   22.6590 O   0  0  0  0  0  0  0  0  0  0  0  0
   -0.9430    8.1730   22.8460 H   0  0  0  0  0  0  0  0  0  0  0  0
   -1.0770    7.7220   21.1760 H   0  0  0  0  0  0  0  0  0  0  0  0
    0.2910   11.0720   19.8520 C   0  0  0  0  0  0  0  0  0  0  0  0
   -0.1930   11.5300   18.9810 H   0  0  0  0  0  0  0  0  0  0  0  0
   -0.5070   10.8700   20.5770 H   0  0  0  0  0  0  0  0  0  0  0  0
    1.2130   12.0240   20.4200 N   0  0  0  0  0  0  0  0  0  0  0  0
    1.7440   13.0010   19.6120 C   0  0  0  0  0  0  0  0  0  0  0  0
    1.3510   13.2210   18.4750 O   0  0  0  0  0  0  0  0  0  0  0  0
    2.7280   13.6930   20.2640 N   0  0  0  0  0  0  0  0  0  0  0  0
    1.8880   11.5990   21.0480 H   0  0  0  0  0  0  0  0  0  0  0  0
    3.0610   13.2810   21.1200 H   0  0  0  0  0  0  0  0  0  0  0  0
    3.5870   14.6810   19.6510 C   0  0  2  0  0  0  0  0  0  0  0  0
    3.8630   14.5120   18.1440 C   0  0  0  0  0  0  0  0  0  0  0  0
    5.2000   15.2220   17.8800 C   0  0  0  0  0  0  0  0  0  0  0  0
    5.8900   15.0820   19.2010 C   0  0  0  0  0  0  0  0  0  0  0  0
    7.2340   15.2670   19.4800 C   0  0  0  0  0  0  0  0  0  0  0  0
    7.6640   15.1160   20.8000 C   0  0  0  0  0  0  0  0  0  0  0  0
    6.7520   14.7940   21.8180 C   0  0  0  0  0  0  0  0  0  0  0  0
    5.3960   14.6220   21.5290 C   0  0  0  0  0  0  0  0  0  0  0  0
    4.9770   14.7630   20.2140 C   0  0  0  0  0  0  0  0  0  0  0  0
    3.1040   15.6530   19.8140 H   0  0  0  0  0  0  0  0  0  0  0  0
    3.0520   14.9180   17.5310 H   0  0  0  0  0  0  0  0  0  0  0  0
    3.9640   13.4570   17.8610 H   0  0  0  0  0  0  0  0  0  0  0  0
    5.7520   14.7410   17.0670 H   0  0  0  0  0  0  0  0  0  0  0  0
    5.0440   16.2810   17.6480 H   0  0  0  0  0  0  0  0  0  0  0  0
    7.9400   15.5200   18.6950 H   0  0  0  0  0  0  0  0  0  0  0  0
    8.7150   15.2470   21.0440 H   0  0  0  0  0  0  0  0  0  0  0  0
    7.1040   14.6780   22.8390 H   0  0  0  0  0  0  0  0  0  0  0  0
    4.6920   14.3760   22.3180 H   0  0  0  0  0  0  0  0  0  0  0  0
  1  6  1  0  0  0  0
  2  3  1  0  0  0  0
  2  1  2  0  0  0  0
  3  4  2  0  0  0  0
  4 30  1  0  0  0  0
  4  5  1  0  0  0  0
  5 25  1  0  0  0  0
  6  5  2  0  0  0  0
  6  9  1  0  0  0  0
  7  2  1  0  0  0  0
  8  3  1  0  0  0  0
 10 20  1  0  0  0  0
 10 15  1  0  0  0  0
 11 12  1  0  0  0  0
 11 10  2  0  0  0  0
 12 13  2  0  0  0  0
 13 14  1  0  0  0  0
 14  1  1  0  0  0  0
 15 14  2  0  0  0  0
 15 19  1  0  0  0  0
 16 11  1  0  0  0  0
 17 12  1  0  0  0  0
 18 13  1  0  0  0  0
 20 21  1  0  0  0  0
 21 22  1  0  0  0  0
 21 24  1  0  0  0  0
 23 21  1  0  0  0  0
 25 26  1  0  0  0  0
 25 27  2  0  0  0  0
 26 28  1  0  0  0  0
 29 26  1  0  0  0  0
 30 33  1  0  0  0  0
 30 32  1  0  0  0  0
 31 30  1  0  0  0  0
 33 37  1  0  0  0  0
 34 36  1  0  0  0  0
 34 33  1  0  0  0  0
 35 34  2  0  0  0  0
 36 38  1  0  0  0  0
 39 48  1  1  0  0  0
 39 47  1  0  0  0  0
 39 36  1  0  0  0  0
 40 39  1  0  0  0  0
 41 40  1  0  0  0  0
 41 42  1  0  0  0  0
 42 43  2  0  0  0  0
 42 47  1  0  0  0  0
 43 44  1  0  0  0  0
 44 54  1  0  0  0  0
 44 45  2  0  0  0  0
 45 55  1  0  0  0  0
 46 45  1  0  0  0  0
 46 56  1  0  0  0  0
 47 46  2  0  0  0  0
 49 40  1  0  0  0  0
 50 40  1  0  0  0  0
 51 41  1  0  0  0  0
 52 41  1  0  0  0  0
 53 43  1  0  0  0  0
M  END
>  <MODEL>
6

>  <REMARK>
 VINA RESULT:    -7.781      4.541      6.810
 INTER + INTRA:         -11.434
 INTER:                 -10.812
 INTRA:                  -0.622
 UNBOUND:                -0.696
  Name = 
  7 active torsions:
  status: ('A' for Active; 'I' for Inactive)
    1  A    between atoms: C_1  and  O_2
    2  A    between atoms: O_2  and  C_3
    3  A    between atoms: C_7  and  C_8
    4  A    between atoms: C_11  and  C_12
    5  A    between atoms: C_12  and  N_13
    6  A    between atoms: N_16  and  C_17
    7  A    between atoms: C_26  and  C_27
                            x       y       z     vdW  Elec       q    Type
                         _______ _______ _______ _____ _____    ______ ____

>  <TORSDO>
F 7

$$$$
=
 OpenBabel07192307433D

 56 59  0  0  1  0  0  0  0  0999 V2000
    2.3120    7.5010   18.6020 C   0  0  0  0  0  0  0  0  0  0  0  0
    2.0370    8.5440   17.7080 C   0  0  0  0  0  0  0  0  0  0  0  0
    1.3760    9.7040   18.1270 C   0  0  0  0  0  0  0  0  0  0  0  0
    0.9680    9.8600   19.4600 C   0  0  0  0  0  0  0  0  0  0  0  0
    1.2320    8.8120   20.3620 C   0  0  0  0  0  0  0  0  0  0  0  0
    1.8980    7.6500   19.9340 C   0  0  0  0  0  0  0  0  0  0  0  0
    2.3430    8.4630   16.6650 H   0  0  0  0  0  0  0  0  0  0  0  0
    1.1790   10.4890   17.3970 H   0  0  0  0  0  0  0  0  0  0  0  0
    2.0590    6.8340   20.6370 H   0  0  0  0  0  0  0  0  0  0  0  0
    5.0050    5.1590   17.3120 C   0  0  0  0  0  0  0  0  0  0  0  0
    4.3210    3.9440   17.2930 C   0  0  0  0  0  0  0  0  0  0  0  0
    2.9870    3.8880   17.7010 C   0  0  0  0  0  0  0  0  0  0  0  0
    2.3310    5.0440   18.1270 C   0  0  0  0  0  0  0  0  0  0  0  0
    2.9970    6.2780   18.1550 C   0  0  0  0  0  0  0  0  0  0  0  0
    4.3400    6.3130   17.7430 C   0  0  0  0  0  0  0  0  0  0  0  0
    4.7970    3.0240   16.9700 H   0  0  0  0  0  0  0  0  0  0  0  0
    2.4570    2.9390   17.6890 H   0  0  0  0  0  0  0  0  0  0  0  0
    1.2950    4.9730   18.4500 H   0  0  0  0  0  0  0  0  0  0  0  0
    4.8840    7.2570   17.7430 H   0  0  0  0  0  0  0  0  0  0  0  0
    6.3060    5.3560   16.9400 O   0  0  0  0  0  0  0  0  0  0  0  0
    7.3060    4.7580   17.7560 C   0  0  0  0  0  0  0  0  0  0  0  0
    7.2680    3.6660   17.6920 H   0  0  0  0  0  0  0  0  0  0  0  0
    7.2240    5.0990   18.7940 H   0  0  0  0  0  0  0  0  0  0  0  0
    8.2810    5.0790   17.3770 H   0  0  0  0  0  0  0  0  0  0  0  0
    0.7750    8.8750   21.7730 C   0  0  0  0  0  0  0  0  0  0  0  0
   -0.5130    8.4830   22.0060 N   0  0  0  0  0  0  0  0  0  0  0  0
    1.5110    9.2470   22.6760 O   0  0  0  0  0  0  0  0  0  0  0  0
   -0.8110    8.4240   22.9710 H   0  0  0  0  0  0  0  0  0  0  0  0
   -1.0700    8.0110   21.3060 H   0  0  0  0  0  0  0  0  0  0  0  0
    0.2860   11.1430   19.8700 C   0  0  0  0  0  0  0  0  0  0  0  0
   -0.1970   11.6080   19.0020 H   0  0  0  0  0  0  0  0  0  0  0  0
   -0.5120   10.9430   20.5960 H   0  0  0  0  0  0  0  0  0  0  0  0
    1.2160   12.0850   20.4400 N   0  0  0  0  0  0  0  0  0  0  0  0
    1.7670   13.0490   19.6310 C   0  0  0  0  0  0  0  0  0  0  0  0
    1.3860   13.2680   18.4900 O   0  0  0  0  0  0  0  0  0  0  0  0
    2.7550   13.7320   20.2870 N   0  0  0  0  0  0  0  0  0  0  0  0
    1.8800   11.6550   21.0750 H   0  0  0  0  0  0  0  0  0  0  0  0
    3.0760   13.3200   21.1470 H   0  0  0  0  0  0  0  0  0  0  0  0
    3.6320   14.7050   19.6750 C   0  0  2  0  0  0  0  0  0  0  0  0
    3.9230   14.5190   18.1740 C   0  0  0  0  0  0  0  0  0  0  0  0
    5.2710   15.2120   17.9180 C   0  0  0  0  0  0  0  0  0  0  0  0
    5.9450   15.0750   19.2490 C   0  0  0  0  0  0  0  0  0  0  0  0
    7.2880   15.2470   19.5420 C   0  0  0  0  0  0  0  0  0  0  0  0
    7.7010   15.1030   20.8680 C   0  0  0  0  0  0  0  0  0  0  0  0
    6.7730   14.8010   21.8780 C   0  0  0  0  0  0  0  0  0  0  0  0
    5.4190   14.6410   21.5750 C   0  0  0  0  0  0  0  0  0  0  0  0
    5.0170   14.7750   20.2540 C   0  0  0  0  0  0  0  0  0  0  0  0
    3.1580   15.6830   19.8240 H   0  0  0  0  0  0  0  0  0  0  0  0
    3.1240   14.9300   17.5470 H   0  0  0  0  0  0  0  0  0  0  0  0
    4.0150   13.4610   17.9010 H   0  0  0  0  0  0  0  0  0  0  0  0
    5.8270   14.7170   17.1170 H   0  0  0  0  0  0  0  0  0  0  0  0
    5.1300   16.2710   17.6760 H   0  0  0  0  0  0  0  0  0  0  0  0
    8.0050   15.4850   18.7630 H   0  0  0  0  0  0  0  0  0  0  0  0
    8.7500   15.2240   21.1230 H   0  0  0  0  0  0  0  0  0  0  0  0
    7.1120   14.6890   22.9040 H   0  0  0  0  0  0  0  0  0  0  0  0
    4.7030   14.4100   22.3580 H   0  0  0  0  0  0  0  0  0  0  0  0
  1  6  1  0  0  0  0
  2  3  1  0  0  0  0
  2  1  2  0  0  0  0
  3  4  2  0  0  0  0
  4 30  1  0  0  0  0
  4  5  1  0  0  0  0
  5 25  1  0  0  0  0
  6  5  2  0  0  0  0
  6  9  1  0  0  0  0
  7  2  1  0  0  0  0
  8  3  1  0  0  0  0
 10 15  1  0  0  0  0
 11 10  2  0  0  0  0
 11 12  1  0  0  0  0
 12 13  2  0  0  0  0
 13 14  1  0  0  0  0
 13 18  1  0  0  0  0
 14  1  1  0  0  0  0
 15 19  1  0  0  0  0
 15 14  2  0  0  0  0
 16 11  1  0  0  0  0
 17 12  1  0  0  0  0
 20 10  1  0  0  0  0
 20 21  1  0  0  0  0
 21 23  1  0  0  0  0
 22 21  1  0  0  0  0
 24 21  1  0  0  0  0
 25 26  1  0  0  0  0
 25 27  2  0  0  0  0
 26 28  1  0  0  0  0
 29 26  1  0  0  0  0
 30 33  1  0  0  0  0
 30 32  1  0  0  0  0
 31 30  1  0  0  0  0
 33 37  1  0  0  0  0
 34 36  1  0  0  0  0
 34 33  1  0  0  0  0
 35 34  2  0  0  0  0
 36 38  1  0  0  0  0
 39 48  1  1  0  0  0
 39 47  1  0  0  0  0
 39 36  1  0  0  0  0
 40 39  1  0  0  0  0
 41 40  1  0  0  0  0
 41 42  1  0  0  0  0
 42 43  2  0  0  0  0
 42 47  1  0  0  0  0
 43 44  1  0  0  0  0
 44 54  1  0  0  0  0
 44 45  2  0  0  0  0
 45 55  1  0  0  0  0
 46 45  1  0  0  0  0
 46 56  1  0  0  0  0
 47 46  2  0  0  0  0
 49 40  1  0  0  0  0
 50 40  1  0  0  0  0
 51 41  1  0  0  0  0
 52 41  1  0  0  0  0
 53 43  1  0  0  0  0
M  END
>  <MODEL>
7

>  <REMARK>
 VINA RESULT:    -7.707      4.674      6.829
 INTER + INTRA:         -11.332
 INTER:                 -10.768
 INTRA:                  -0.564
 UNBOUND:                -0.696
  Name = 
  7 active torsions:
  status: ('A' for Active; 'I' for Inactive)
    1  A    between atoms: C_1  and  O_2
    2  A    between atoms: O_2  and  C_3
    3  A    between atoms: C_7  and  C_8
    4  A    between atoms: C_11  and  C_12
    5  A    between atoms: C_12  and  N_13
    6  A    between atoms: N_16  and  C_17
    7  A    between atoms: C_26  and  C_27
                            x       y       z     vdW  Elec       q    Type
                         _______ _______ _______ _____ _____    ______ ____

>  <TORSDO>
F 7

$$$$
=
 OpenBabel07192307433D

 56 59  0  0  1  0  0  0  0  0999 V2000
   -0.3320   11.0930   21.9350 C   0  0  0  0  0  0  0  0  0  0  0  0
   -0.2890    9.9590   22.7580 C   0  0  0  0  0  0  0  0  0  0  0  0
    0.1600    8.7260   22.2710 C   0  0  0  0  0  0  0  0  0  0  0  0
    0.5830    8.5860   20.9400 C   0  0  0  0  0  0  0  0  0  0  0  0
    0.5320    9.7180   20.1060 C   0  0  0  0  0  0  0  0  0  0  0  0
    0.0820   10.9540   20.6020 C   0  0  0  0  0  0  0  0  0  0  0  0
   -0.6030   10.0280   23.7990 H   0  0  0  0  0  0  0  0  0  0  0  0
    0.1730    7.8690   22.9440 H   0  0  0  0  0  0  0  0  0  0  0  0
    0.0140   11.8090   19.9310 H   0  0  0  0  0  0  0  0  0  0  0  0
   -2.4380   13.6810   23.7410 C   0  0  0  0  0  0  0  0  0  0  0  0
   -1.7500   14.8530   23.4320 C   0  0  0  0  0  0  0  0  0  0  0  0
   -0.6040   14.8010   22.6370 C   0  0  0  0  0  0  0  0  0  0  0  0
   -0.1410   13.5780   22.1490 C   0  0  0  0  0  0  0  0  0  0  0  0
   -0.8140   12.3840   22.4470 C   0  0  0  0  0  0  0  0  0  0  0  0
   -1.9640   12.4590   23.2500 C   0  0  0  0  0  0  0  0  0  0  0  0
   -2.0780   15.8220   23.7940 H   0  0  0  0  0  0  0  0  0  0  0  0
   -0.0670   15.7170   22.4000 H   0  0  0  0  0  0  0  0  0  0  0  0
    0.7610   13.5620   21.5410 H   0  0  0  0  0  0  0  0  0  0  0  0
   -2.5170   11.5520   23.4920 H   0  0  0  0  0  0  0  0  0  0  0  0
   -3.5690   13.5890   24.5040 O   0  0  0  0  0  0  0  0  0  0  0  0
   -4.2360   12.3330   24.5170 C   0  0  0  0  0  0  0  0  0  0  0  0
   -5.0030   12.3000   25.2970 H   0  0  0  0  0  0  0  0  0  0  0  0
   -3.5220   11.5090   24.6270 H   0  0  0  0  0  0  0  0  0  0  0  0
   -4.7380   12.2110   23.5520 H   0  0  0  0  0  0  0  0  0  0  0  0
    0.9020    9.6350   18.6700 C   0  0  0  0  0  0  0  0  0  0  0  0
   -0.1200    9.7920   17.7770 N   0  0  0  0  0  0  0  0  0  0  0  0
    2.0550    9.4460   18.3080 O   0  0  0  0  0  0  0  0  0  0  0  0
    0.1270    9.8390   16.7960 H   0  0  0  0  0  0  0  0  0  0  0  0
   -1.0340   10.1220   18.0530 H   0  0  0  0  0  0  0  0  0  0  0  0
    1.0860    7.2420   20.4720 C   0  0  0  0  0  0  0  0  0  0  0  0
    0.9880    6.5010   21.2730 H   0  0  0  0  0  0  0  0  0  0  0  0
    0.4820    6.8730   19.6340 H   0  0  0  0  0  0  0  0  0  0  0  0
    2.4680    7.3010   20.0650 N   0  0  0  0  0  0  0  0  0  0  0  0
    3.0400    6.1920   19.4880 C   0  0  0  0  0  0  0  0  0  0  0  0
    2.4000    5.2110   19.1370 O   0  0  0  0  0  0  0  0  0  0  0  0
    4.3900    6.3600   19.3360 N   0  0  0  0  0  0  0  0  0  0  0  0
    3.0650    7.7620   20.7450 H   0  0  0  0  0  0  0  0  0  0  0  0
    4.7930    7.1370   19.8350 H   0  0  0  0  0  0  0  0  0  0  0  0
    5.3060    5.3310   18.9010 C   0  0  2  0  0  0  0  0  0  0  0  0
    6.7410    5.4090   19.4570 C   0  0  0  0  0  0  0  0  0  0  0  0
    7.6260    4.6730   18.4390 C   0  0  0  0  0  0  0  0  0  0  0  0
    6.8700    4.8850   17.1630 C   0  0  0  0  0  0  0  0  0  0  0  0
    7.3250    4.7050   15.8670 C   0  0  0  0  0  0  0  0  0  0  0  0
    6.4350    4.9300   14.8150 C   0  0  0  0  0  0  0  0  0  0  0  0
    5.1100    5.3190   15.0690 C   0  0  0  0  0  0  0  0  0  0  0  0
    4.6560    5.4850   16.3790 C   0  0  0  0  0  0  0  0  0  0  0  0
    5.5490    5.2710   17.4200 C   0  0  0  0  0  0  0  0  0  0  0  0
    4.8610    4.3750   19.2050 H   0  0  0  0  0  0  0  0  0  0  0  0
    6.8170    4.9740   20.4590 H   0  0  0  0  0  0  0  0  0  0  0  0
    7.0920    6.4440   19.5430 H   0  0  0  0  0  0  0  0  0  0  0  0
    8.6320    5.1010   18.4040 H   0  0  0  0  0  0  0  0  0  0  0  0
    7.6840    3.6030   18.6670 H   0  0  0  0  0  0  0  0  0  0  0  0
    8.3480    4.4000   15.6700 H   0  0  0  0  0  0  0  0  0  0  0  0
    6.7700    4.8050   13.7880 H   0  0  0  0  0  0  0  0  0  0  0  0
    4.4320    5.4920   14.2380 H   0  0  0  0  0  0  0  0  0  0  0  0
    3.6310    5.7830   16.5740 H   0  0  0  0  0  0  0  0  0  0  0  0
  1 14  1  0  0  0  0
  1  2  1  0  0  0  0
  2  7  1  0  0  0  0
  3  2  2  0  0  0  0
  3  8  1  0  0  0  0
  4  3  1  0  0  0  0
  5  6  1  0  0  0  0
  5  4  2  0  0  0  0
  6  1  2  0  0  0  0
  9  6  1  0  0  0  0
 10 20  1  0  0  0  0
 11 10  1  0  0  0  0
 11 16  1  0  0  0  0
 12 11  2  0  0  0  0
 13 14  2  0  0  0  0
 13 12  1  0  0  0  0
 14 15  1  0  0  0  0
 15 19  1  0  0  0  0
 15 10  2  0  0  0  0
 17 12  1  0  0  0  0
 18 13  1  0  0  0  0
 20 21  1  0  0  0  0
 21 23  1  0  0  0  0
 21 22  1  0  0  0  0
 24 21  1  0  0  0  0
 25  5  1  0  0  0  0
 26 29  1  0  0  0  0
 26 25  1  0  0  0  0
 27 25  2  0  0  0  0
 28 26  1  0  0  0  0
 30  4  1  0  0  0  0
 30 31  1  0  0  0  0
 32 30  1  0  0  0  0
 33 30  1  0  0  0  0
 33 37  1  0  0  0  0
 34 33  1  0  0  0  0
 35 34  2  0  0  0  0
 36 34  1  0  0  0  0
 36 38  1  0  0  0  0
 39 48  1  1  0  0  0
 39 36  1  0  0  0  0
 39 40  1  0  0  0  0
 40 50  1  0  0  0  0
 40 49  1  0  0  0  0
 41 52  1  0  0  0  0
 41 40  1  0  0  0  0
 42 47  1  0  0  0  0
 42 41  1  0  0  0  0
 43 42  2  0  0  0  0
 44 45  2  0  0  0  0
 44 43  1  0  0  0  0
 45 46  1  0  0  0  0
 46 56  1  0  0  0  0
 46 47  2  0  0  0  0
 47 39  1  0  0  0  0
 51 41  1  0  0  0  0
 53 43  1  0  0  0  0
 54 44  1  0  0  0  0
 55 45  1  0  0  0  0
M  END
>  <MODEL>
8

>  <REMARK>
 VINA RESULT:    -7.685      2.748     10.614
 INTER + INTRA:         -11.301
 INTER:                 -10.486
 INTRA:                  -0.816
 UNBOUND:                -0.696
  Name = 
  7 active torsions:
  status: ('A' for Active; 'I' for Inactive)
    1  A    between atoms: C_1  and  O_2
    2  A    between atoms: O_2  and  C_3
    3  A    between atoms: C_7  and  C_8
    4  A    between atoms: C_11  and  C_12
    5  A    between atoms: C_12  and  N_13
    6  A    between atoms: N_16  and  C_17
    7  A    between atoms: C_26  and  C_27
                            x       y       z     vdW  Elec       q    Type
                         _______ _______ _______ _____ _____    ______ ____

>  <TORSDO>
F 7

$$$$
=
 OpenBabel07192307433D

 56 59  0  0  1  0  0  0  0  0999 V2000
    2.3580    7.4340   18.5310 C   0  0  0  0  0  0  0  0  0  0  0  0
    2.1870    8.5040   17.6420 C   0  0  0  0  0  0  0  0  0  0  0  0
    1.5840    9.6980   18.0520 C   0  0  0  0  0  0  0  0  0  0  0  0
    1.1310    9.8630   19.3700 C   0  0  0  0  0  0  0  0  0  0  0  0
    1.2900    8.7880   20.2650 C   0  0  0  0  0  0  0  0  0  0  0  0
    1.8980    7.5920   19.8470 C   0  0  0  0  0  0  0  0  0  0  0  0
    2.5310    8.4180   16.6120 H   0  0  0  0  0  0  0  0  0  0  0  0
    1.4680   10.5040   17.3270 H   0  0  0  0  0  0  0  0  0  0  0  0
    1.9780    6.7580   20.5420 H   0  0  0  0  0  0  0  0  0  0  0  0
    2.8450    3.7640   17.7000 C   0  0  0  0  0  0  0  0  0  0  0  0
    4.1680    3.7580   17.2620 C   0  0  0  0  0  0  0  0  0  0  0  0
    4.9000    4.9470   17.2370 C   0  0  0  0  0  0  0  0  0  0  0  0
    4.3120    6.1440   17.6500 C   0  0  0  0  0  0  0  0  0  0  0  0
    2.9820    6.1760   18.0940 C   0  0  0  0  0  0  0  0  0  0  0  0
    2.2630    4.9690   18.1090 C   0  0  0  0  0  0  0  0  0  0  0  0
    4.6590    2.8480   16.9320 H   0  0  0  0  0  0  0  0  0  0  0  0
    5.9300    4.9410   16.8910 H   0  0  0  0  0  0  0  0  0  0  0  0
    4.8990    7.0590   17.6110 H   0  0  0  0  0  0  0  0  0  0  0  0
    1.2310    4.9570   18.4570 H   0  0  0  0  0  0  0  0  0  0  0  0
    2.0180    2.6770   17.7760 O   0  0  0  0  0  0  0  0  0  0  0  0
    0.9880    2.7200   18.7560 C   0  0  0  0  0  0  0  0  0  0  0  0
    0.7590    3.7500   19.0450 H   0  0  0  0  0  0  0  0  0  0  0  0
    1.2480    2.1110   19.6290 H   0  0  0  0  0  0  0  0  0  0  0  0
    0.0850    2.2920   18.3090 H   0  0  0  0  0  0  0  0  0  0  0  0
    0.7790    8.8620   21.6570 C   0  0  0  0  0  0  0  0  0  0  0  0
    1.7160    9.0580   22.6320 N   0  0  0  0  0  0  0  0  0  0  0  0
   -0.4130    8.7620   21.9160 O   0  0  0  0  0  0  0  0  0  0  0  0
    1.3780    9.2110   23.5730 H   0  0  0  0  0  0  0  0  0  0  0  0
    2.6700    9.3170   22.4210 H   0  0  0  0  0  0  0  0  0  0  0  0
    0.5150   11.1810   19.7710 C   0  0  0  0  0  0  0  0  0  0  0  0
    0.7980   11.4330   20.8000 H   0  0  0  0  0  0  0  0  0  0  0  0
    0.8930   11.9940   19.1390 H   0  0  0  0  0  0  0  0  0  0  0  0
   -0.9240   11.1480   19.6840 N   0  0  0  0  0  0  0  0  0  0  0  0
   -1.6450   12.2140   20.1650 C   0  0  0  0  0  0  0  0  0  0  0  0
   -1.1350   13.2710   20.5090 O   0  0  0  0  0  0  0  0  0  0  0  0
   -2.9850   11.9360   20.1710 N   0  0  0  0  0  0  0  0  0  0  0  0
   -1.3170   10.2440   19.9270 H   0  0  0  0  0  0  0  0  0  0  0  0
   -3.2320   10.9700   20.0340 H   0  0  0  0  0  0  0  0  0  0  0  0
   -4.0010   12.7830   20.7520 C   0  0  2  0  0  0  0  0  0  0  0  0
   -4.1800   14.1760   20.1200 C   0  0  0  0  0  0  0  0  0  0  0  0
   -4.7960   15.0590   21.2170 C   0  0  0  0  0  0  0  0  0  0  0  0
   -4.2680   14.4170   22.4630 C   0  0  0  0  0  0  0  0  0  0  0  0
   -4.2440   14.9430   23.7440 C   0  0  0  0  0  0  0  0  0  0  0  0
   -3.7320   14.1530   24.7750 C   0  0  0  0  0  0  0  0  0  0  0  0
   -3.2640   12.8540   24.5170 C   0  0  0  0  0  0  0  0  0  0  0  0
   -3.3040   12.3270   23.2240 C   0  0  0  0  0  0  0  0  0  0  0  0
   -3.8040   13.1220   22.2030 C   0  0  0  0  0  0  0  0  0  0  0  0
   -4.9470   12.2320   20.6650 H   0  0  0  0  0  0  0  0  0  0  0  0
   -4.8030   14.1420   19.2210 H   0  0  0  0  0  0  0  0  0  0  0  0
   -3.2220   14.6140   19.8150 H   0  0  0  0  0  0  0  0  0  0  0  0
   -4.4750   16.1000   21.1160 H   0  0  0  0  0  0  0  0  0  0  0  0
   -5.8890   15.0030   21.2000 H   0  0  0  0  0  0  0  0  0  0  0  0
   -4.6090   15.9450   23.9450 H   0  0  0  0  0  0  0  0  0  0  0  0
   -3.6930   14.5460   25.7880 H   0  0  0  0  0  0  0  0  0  0  0  0
   -2.8660   12.2540   25.3310 H   0  0  0  0  0  0  0  0  0  0  0  0
   -2.9440   11.3220   23.0280 H   0  0  0  0  0  0  0  0  0  0  0  0
  1  6  1  0  0  0  0
  2  3  1  0  0  0  0
  2  1  2  0  0  0  0
  3  4  2  0  0  0  0
  4 30  1  0  0  0  0
  4  5  1  0  0  0  0
  5 25  1  0  0  0  0
  6  5  2  0  0  0  0
  6  9  1  0  0  0  0
  7  2  1  0  0  0  0
  8  3  1  0  0  0  0
 10 20  1  0  0  0  0
 10 15  1  0  0  0  0
 11 10  2  0  0  0  0
 12 11  1  0  0  0  0
 12 13  2  0  0  0  0
 13 14  1  0  0  0  0
 14 15  2  0  0  0  0
 14  1  1  0  0  0  0
 15 19  1  0  0  0  0
 16 11  1  0  0  0  0
 17 12  1  0  0  0  0
 18 13  1  0  0  0  0
 20 21  1  0  0  0  0
 21 22  1  0  0  0  0
 21 23  1  0  0  0  0
 24 21  1  0  0  0  0
 25 27  2  0  0  0  0
 25 26  1  0  0  0  0
 26 28  1  0  0  0  0
 29 26  1  0  0  0  0
 30 31  1  0  0  0  0
 32 30  1  0  0  0  0
 33 30  1  0  0  0  0
 33 37  1  0  0  0  0
 33 34  1  0  0  0  0
 34 36  1  0  0  0  0
 34 35  2  0  0  0  0
 36 39  1  0  0  0  0
 38 36  1  0  0  0  0
 39 48  1  6  0  0  0
 39 47  1  0  0  0  0
 40 39  1  0  0  0  0
 40 41  1  0  0  0  0
 41 42  1  0  0  0  0
 42 43  1  0  0  0  0
 43 53  1  0  0  0  0
 43 44  2  0  0  0  0
 44 54  1  0  0  0  0
 45 44  1  0  0  0  0
 45 55  1  0  0  0  0
 46 45  2  0  0  0  0
 47 42  2  0  0  0  0
 47 46  1  0  0  0  0
 49 40  1  0  0  0  0
 50 40  1  0  0  0  0
 51 41  1  0  0  0  0
 52 41  1  0  0  0  0
 56 46  1  0  0  0  0
M  END
>  <MODEL>
9

>  <REMARK>
 VINA RESULT:    -7.561      3.395      6.278
 INTER + INTRA:         -11.130
 INTER:                 -10.309
 INTRA:                  -0.822
 UNBOUND:                -0.696
  Name = 
  7 active torsions:
  status: ('A' for Active; 'I' for Inactive)
    1  A    between atoms: C_1  and  O_2
    2  A    between atoms: O_2  and  C_3
    3  A    between atoms: C_7  and  C_8
    4  A    between atoms: C_11  and  C_12
    5  A    between atoms: C_12  and  N_13
    6  A    between atoms: N_16  and  C_17
    7  A    between atoms: C_26  and  C_27
                            x       y       z     vdW  Elec       q    Type
                         _______ _______ _______ _____ _____    ______ ____

>  <TORSDO>
F 7

$$$$
=
 OpenBabel07192307433D

 56 59  0  0  1  0  0  0  0  0999 V2000
   -1.9030   12.0490   21.1520 C   0  0  0  0  0  0  0  0  0  0  0  0
   -0.6380   11.6170   21.5720 C   0  0  0  0  0  0  0  0  0  0  0  0
    0.2350   10.9660   20.6930 C   0  0  0  0  0  0  0  0  0  0  0  0
   -0.1290   10.7270   19.3590 C   0  0  0  0  0  0  0  0  0  0  0  0
   -1.4020   11.1500   18.9330 C   0  0  0  0  0  0  0  0  0  0  0  0
   -2.2740   11.8050   19.8210 C   0  0  0  0  0  0  0  0  0  0  0  0
   -0.3150   11.7890   22.5980 H   0  0  0  0  0  0  0  0  0  0  0  0
    1.2080   10.6420   21.0620 H   0  0  0  0  0  0  0  0  0  0  0  0
   -3.2690   12.0900   19.4840 H   0  0  0  0  0  0  0  0  0  0  0  0
   -3.1950   14.0990   24.0720 C   0  0  0  0  0  0  0  0  0  0  0  0
   -4.5720   14.0170   23.8720 C   0  0  0  0  0  0  0  0  0  0  0  0
   -5.0790   13.2960   22.7890 C   0  0  0  0  0  0  0  0  0  0  0  0
   -4.2110   12.6550   21.9030 C   0  0  0  0  0  0  0  0  0  0  0  0
   -2.8220   12.7240   22.0810 C   0  0  0  0  0  0  0  0  0  0  0  0
   -2.3330   13.4550   23.1760 C   0  0  0  0  0  0  0  0  0  0  0  0
   -5.2780   14.5020   24.5380 H   0  0  0  0  0  0  0  0  0  0  0  0
   -6.1530   13.2370   22.6330 H   0  0  0  0  0  0  0  0  0  0  0  0
   -4.6290   12.1090   21.0600 H   0  0  0  0  0  0  0  0  0  0  0  0
   -1.2600   13.5210   23.3500 H   0  0  0  0  0  0  0  0  0  0  0  0
   -2.5680   14.7670   25.0870 O   0  0  0  0  0  0  0  0  0  0  0  0
   -1.2290   15.1840   24.8520 C   0  0  0  0  0  0  0  0  0  0  0  0
   -0.6470   15.1920   25.7790 H   0  0  0  0  0  0  0  0  0  0  0  0
   -1.2010   16.1620   24.3590 H   0  0  0  0  0  0  0  0  0  0  0  0
   -0.7660   14.4580   24.1760 H   0  0  0  0  0  0  0  0  0  0  0  0
   -1.8850   10.8760   17.5560 C   0  0  0  0  0  0  0  0  0  0  0  0
   -1.9440   11.9500   16.7150 N   0  0  0  0  0  0  0  0  0  0  0  0
   -2.2040    9.7510   17.1930 O   0  0  0  0  0  0  0  0  0  0  0  0
   -2.1740   11.7680   15.7470 H   0  0  0  0  0  0  0  0  0  0  0  0
   -1.5210   12.8400   16.9430 H   0  0  0  0  0  0  0  0  0  0  0  0
    0.8600   10.0480   18.4430 C   0  0  0  0  0  0  0  0  0  0  0  0
    0.3410    9.6230   17.5750 H   0  0  0  0  0  0  0  0  0  0  0  0
    1.5810   10.7730   18.0460 H   0  0  0  0  0  0  0  0  0  0  0  0
    1.5740    8.9910   19.1150 N   0  0  0  0  0  0  0  0  0  0  0  0
    2.2520    8.0630   18.3620 C   0  0  0  0  0  0  0  0  0  0  0  0
    2.4320    8.1750   17.1580 O   0  0  0  0  0  0  0  0  0  0  0  0
    2.7130    7.0390   19.1460 N   0  0  0  0  0  0  0  0  0  0  0  0
    1.0560    8.5910   19.8900 H   0  0  0  0  0  0  0  0  0  0  0  0
    2.3310    6.9950   20.0770 H   0  0  0  0  0  0  0  0  0  0  0  0
    3.3330    5.8330   18.6480 C   0  0  2  0  0  0  0  0  0  0  0  0
    3.3800    4.6350   19.6150 C   0  0  0  0  0  0  0  0  0  0  0  0
    4.5590    3.7650   19.1500 C   0  0  0  0  0  0  0  0  0  0  0  0
    5.4660    4.7830   18.5290 C   0  0  0  0  0  0  0  0  0  0  0  0
    6.8040    4.6390   18.2020 C   0  0  0  0  0  0  0  0  0  0  0  0
    7.4570    5.7130   17.5940 C   0  0  0  0  0  0  0  0  0  0  0  0
    6.7670    6.9040   17.3140 C   0  0  0  0  0  0  0  0  0  0  0  0
    5.4140    7.0360   17.6360 C   0  0  0  0  0  0  0  0  0  0  0  0
    4.7750    5.9680   18.2490 C   0  0  0  0  0  0  0  0  0  0  0  0
    2.7660    5.5420   17.7540 H   0  0  0  0  0  0  0  0  0  0  0  0
    2.4370    4.0790   19.6260 H   0  0  0  0  0  0  0  0  0  0  0  0
    3.5630    4.9490   20.6490 H   0  0  0  0  0  0  0  0  0  0  0  0
    5.0270    3.2470   19.9910 H   0  0  0  0  0  0  0  0  0  0  0  0
    4.2380    3.0380   18.3960 H   0  0  0  0  0  0  0  0  0  0  0  0
    7.3370    3.7170   18.4130 H   0  0  0  0  0  0  0  0  0  0  0  0
    8.5090    5.6300   17.3360 H   0  0  0  0  0  0  0  0  0  0  0  0
    7.2910    7.7320   16.8440 H   0  0  0  0  0  0  0  0  0  0  0  0
    4.8830    7.9560   17.4160 H   0  0  0  0  0  0  0  0  0  0  0  0
  1  2  1  0  0  0  0
  1 14  1  0  0  0  0
  2  7  1  0  0  0  0
  3  8  1  0  0  0  0
  3  2  2  0  0  0  0
  4  3  1  0  0  0  0
  5  4  2  0  0  0  0
  5  6  1  0  0  0  0
  6  1  2  0  0  0  0
  9  6  1  0  0  0  0
 10 20  1  0  0  0  0
 11 10  1  0  0  0  0
 11 16  1  0  0  0  0
 12 11  2  0  0  0  0
 13 14  2  0  0  0  0
 13 12  1  0  0  0  0
 14 15  1  0  0  0  0
 15 19  1  0  0  0  0
 15 10  2  0  0  0  0
 17 12  1  0  0  0  0
 18 13  1  0  0  0  0
 21 20  1  0  0  0  0
 21 22  1  0  0  0  0
 23 21  1  0  0  0  0
 24 21  1  0  0  0  0
 25  5  1  0  0  0  0
 26 29  1  0  0  0  0
 26 25  1  0  0  0  0
 27 25  2  0  0  0  0
 28 26  1  0  0  0  0
 30 33  1  0  0  0  0
 30  4  1  0  0  0  0
 31 30  1  0  0  0  0
 32 30  1  0  0  0  0
 33 37  1  0  0  0  0
 34 33  1  0  0  0  0
 34 36  1  0  0  0  0
 35 34  2  0  0  0  0
 36 38  1  0  0  0  0
 39 48  1  6  0  0  0
 39 36  1  0  0  0  0
 39 40  1  0  0  0  0
 40 49  1  0  0  0  0
 40 50  1  0  0  0  0
 41 40  1  0  0  0  0
 41 51  1  0  0  0  0
 42 41  1  0  0  0  0
 43 53  1  0  0  0  0
 43 42  2  0  0  0  0
 44 43  1  0  0  0  0
 45 44  2  0  0  0  0
 45 46  1  0  0  0  0
 46 47  2  0  0  0  0
 47 42  1  0  0  0  0
 47 39  1  0  0  0  0
 52 41  1  0  0  0  0
 54 44  1  0  0  0  0
 55 45  1  0  0  0  0
 56 46  1  0  0  0  0
M  END
>  <MODEL>
10

>  <REMARK>
 VINA RESULT:    -7.499      3.524     11.236
 INTER + INTRA:         -11.045
 INTER:                 -10.473
 INTRA:                  -0.572
 UNBOUND:                -0.696
  Name = 
  7 active torsions:
  status: ('A' for Active; 'I' for Inactive)
    1  A    between atoms: C_1  and  O_2
    2  A    between atoms: O_2  and  C_3
    3  A    between atoms: C_7  and  C_8
    4  A    between atoms: C_11  and  C_12
    5  A    between atoms: C_12  and  N_13
    6  A    between atoms: N_16  and  C_17
    7  A    between atoms: C_26  and  C_27
                            x       y       z     vdW  Elec       q    Type
                         _______ _______ _______ _____ _____    ______ ____

>  <TORSDO>
F 7

$$$$
=
 OpenBabel07192307433D

 56 59  0  0  1  0  0  0  0  0999 V2000
    3.9720    6.2670   18.1950 C   0  0  0  0  0  0  0  0  0  0  0  0
    3.6700    5.8000   19.4810 C   0  0  0  0  0  0  0  0  0  0  0  0
    2.6850    6.4150   20.2630 C   0  0  0  0  0  0  0  0  0  0  0  0
    1.9670    7.5190   19.7820 C   0  0  0  0  0  0  0  0  0  0  0  0
    2.2720    8.0000   18.4950 C   0  0  0  0  0  0  0  0  0  0  0  0
    3.2610    7.3770   17.7140 C   0  0  0  0  0  0  0  0  0  0  0  0
    4.2020    4.9410   19.8890 H   0  0  0  0  0  0  0  0  0  0  0  0
    2.4850    6.0220   21.2600 H   0  0  0  0  0  0  0  0  0  0  0  0
    3.5100    7.7860   16.7370 H   0  0  0  0  0  0  0  0  0  0  0  0
    5.7390    4.6200   15.2690 C   0  0  0  0  0  0  0  0  0  0  0  0
    7.0030    4.3920   15.8090 C   0  0  0  0  0  0  0  0  0  0  0  0
    7.2800    4.7740   17.1230 C   0  0  0  0  0  0  0  0  0  0  0  0
    6.2940    5.3840   17.9010 C   0  0  0  0  0  0  0  0  0  0  0  0
    5.0150    5.6260   17.3800 C   0  0  0  0  0  0  0  0  0  0  0  0
    4.7580    5.2350   16.0550 C   0  0  0  0  0  0  0  0  0  0  0  0
    7.7950    3.9220   15.2360 H   0  0  0  0  0  0  0  0  0  0  0  0
    8.2680    4.5980   17.5410 H   0  0  0  0  0  0  0  0  0  0  0  0
    6.5370    5.6830   18.9190 H   0  0  0  0  0  0  0  0  0  0  0  0
    3.7720    5.3990   15.6230 H   0  0  0  0  0  0  0  0  0  0  0  0
    5.3340    4.2970   14.0030 O   0  0  0  0  0  0  0  0  0  0  0  0
    6.3020    3.6950   13.1520 C   0  0  0  0  0  0  0  0  0  0  0  0
    7.1530    4.3620   12.9860 H   0  0  0  0  0  0  0  0  0  0  0  0
    5.8520    3.3820   12.2030 H   0  0  0  0  0  0  0  0  0  0  0  0
    6.6760    2.7980   13.6540 H   0  0  0  0  0  0  0  0  0  0  0  0
    1.6010    9.2030   17.9410 C   0  0  0  0  0  0  0  0  0  0  0  0
    2.4110   10.2630   17.6510 N   0  0  0  0  0  0  0  0  0  0  0  0
    0.3930    9.2400   17.7480 O   0  0  0  0  0  0  0  0  0  0  0  0
    1.9890   11.0530   17.1810 H   0  0  0  0  0  0  0  0  0  0  0  0
    3.4190   10.1860   17.6380 H   0  0  0  0  0  0  0  0  0  0  0  0
    0.8940    8.1280   20.6520 C   0  0  0  0  0  0  0  0  0  0  0  0
   -0.0950    7.7690   20.3410 H   0  0  0  0  0  0  0  0  0  0  0  0
    1.0190    7.8180   21.6970 H   0  0  0  0  0  0  0  0  0  0  0  0
    0.9020    9.5680   20.5850 N   0  0  0  0  0  0  0  0  0  0  0  0
   -0.0000   10.2760   21.3410 C   0  0  0  0  0  0  0  0  0  0  0  0
   -0.7010    9.7660   22.2040 O   0  0  0  0  0  0  0  0  0  0  0  0
    0.0250   11.6050   21.0170 N   0  0  0  0  0  0  0  0  0  0  0  0
    1.0110    9.9220   19.6390 H   0  0  0  0  0  0  0  0  0  0  0  0
    0.5160   11.8400   20.1700 H   0  0  0  0  0  0  0  0  0  0  0  0
   -0.9010   12.5950   21.5180 C   0  0  2  0  0  0  0  0  0  0  0  0
   -1.1780   12.5720   23.0340 C   0  0  0  0  0  0  0  0  0  0  0  0
   -2.5600   13.2180   23.2180 C   0  0  0  0  0  0  0  0  0  0  0  0
   -3.2290   12.8920   21.9170 C   0  0  0  0  0  0  0  0  0  0  0  0
   -4.5790   12.9590   21.6170 C   0  0  0  0  0  0  0  0  0  0  0  0
   -4.9870   12.6380   20.3210 C   0  0  0  0  0  0  0  0  0  0  0  0
   -4.0460   12.2690   19.3450 C   0  0  0  0  0  0  0  0  0  0  0  0
   -2.6850   12.2170   19.6530 C   0  0  0  0  0  0  0  0  0  0  0  0
   -2.2880   12.5260   20.9470 C   0  0  0  0  0  0  0  0  0  0  0  0
   -0.4790   13.5730   21.2520 H   0  0  0  0  0  0  0  0  0  0  0  0
   -0.4010   13.0940   23.6010 H   0  0  0  0  0  0  0  0  0  0  0  0
   -1.2140   11.5500   23.4280 H   0  0  0  0  0  0  0  0  0  0  0  0
   -3.0870   12.7930   24.0760 H   0  0  0  0  0  0  0  0  0  0  0  0
   -2.4750   14.3040   23.3330 H   0  0  0  0  0  0  0  0  0  0  0  0
   -5.3070   13.2480   22.3690 H   0  0  0  0  0  0  0  0  0  0  0  0
   -6.0420   12.6740   20.0620 H   0  0  0  0  0  0  0  0  0  0  0  0
   -4.3810   12.0210   18.3420 H   0  0  0  0  0  0  0  0  0  0  0  0
   -1.9590   11.9340   18.8970 H   0  0  0  0  0  0  0  0  0  0  0  0
  1  2  1  0  0  0  0
  2  7  1  0  0  0  0
  2  3  2  0  0  0  0
  3  8  1  0  0  0  0
  4  3  1  0  0  0  0
  4 30  1  0  0  0  0
  5  4  2  0  0  0  0
  6  1  2  0  0  0  0
  6  5  1  0  0  0  0
  9  6  1  0  0  0  0
 10 11  2  0  0  0  0
 10 15  1  0  0  0  0
 11 12  1  0  0  0  0
 12 17  1  0  0  0  0
 12 13  2  0  0  0  0
 13 18  1  0  0  0  0
 14 13  1  0  0  0  0
 14  1  1  0  0  0  0
 15 14  2  0  0  0  0
 16 11  1  0  0  0  0
 19 15  1  0  0  0  0
 20 10  1  0  0  0  0
 21 24  1  0  0  0  0
 21 20  1  0  0  0  0
 22 21  1  0  0  0  0
 23 21  1  0  0  0  0
 25  5  1  0  0  0  0
 26 25  1  0  0  0  0
 27 25  2  0  0  0  0
 28 26  1  0  0  0  0
 29 26  1  0  0  0  0
 30 32  1  0  0  0  0
 31 30  1  0  0  0  0
 33 30  1  0  0  0  0
 33 34  1  0  0  0  0
 34 35  2  0  0  0  0
 36 34  1  0  0  0  0
 36 39  1  0  0  0  0
 37 33  1  0  0  0  0
 38 36  1  0  0  0  0
 39 48  1  6  0  0  0
 39 40  1  0  0  0  0
 40 41  1  0  0  0  0
 40 50  1  0  0  0  0
 40 49  1  0  0  0  0
 41 52  1  0  0  0  0
 41 51  1  0  0  0  0
 42 41  1  0  0  0  0
 43 42  1  0  0  0  0
 43 53  1  0  0  0  0
 44 43  2  0  0  0  0
 45 46  2  0  0  0  0
 45 44  1  0  0  0  0
 46 47  1  0  0  0  0
 47 39  1  0  0  0  0
 47 42  2  0  0  0  0
 54 44  1  0  0  0  0
 55 45  1  0  0  0  0
 56 46  1  0  0  0  0
M  END
>  <MODEL>
11

>  <REMARK>
 VINA RESULT:    -7.412      2.624      4.508
 INTER + INTRA:         -10.924
 INTER:                 -10.885
 INTRA:                  -0.040
 UNBOUND:                -0.696
  Name = 
  7 active torsions:
  status: ('A' for Active; 'I' for Inactive)
    1  A    between atoms: C_1  and  O_2
    2  A    between atoms: O_2  and  C_3
    3  A    between atoms: C_7  and  C_8
    4  A    between atoms: C_11  and  C_12
    5  A    between atoms: C_12  and  N_13
    6  A    between atoms: N_16  and  C_17
    7  A    between atoms: C_26  and  C_27
                            x       y       z     vdW  Elec       q    Type
                         _______ _______ _______ _____ _____    ______ ____

>  <TORSDO>
F 7

$$$$
=
 OpenBabel07192307433D

 56 59  0  0  1  0  0  0  0  0999 V2000
    2.7280    6.9840   18.6470 C   0  0  0  0  0  0  0  0  0  0  0  0
    2.4470    6.5580   19.9530 C   0  0  0  0  0  0  0  0  0  0  0  0
    1.6120    7.3010   20.7940 C   0  0  0  0  0  0  0  0  0  0  0  0
    1.0250    8.4980   20.3550 C   0  0  0  0  0  0  0  0  0  0  0  0
    1.3110    8.9370   19.0490 C   0  0  0  0  0  0  0  0  0  0  0  0
    2.1500    8.1840   18.2080 C   0  0  0  0  0  0  0  0  0  0  0  0
    2.8790    5.6310   20.3290 H   0  0  0  0  0  0  0  0  0  0  0  0
    1.4240    6.9360   21.8030 H   0  0  0  0  0  0  0  0  0  0  0  0
    2.3900    8.5590   17.2150 H   0  0  0  0  0  0  0  0  0  0  0  0
    4.3970    4.0490   16.9170 C   0  0  0  0  0  0  0  0  0  0  0  0
    5.3120    4.7040   16.0950 C   0  0  0  0  0  0  0  0  0  0  0  0
    5.3850    6.0980   16.1030 C   0  0  0  0  0  0  0  0  0  0  0  0
    4.5450    6.8410   16.9330 C   0  0  0  0  0  0  0  0  0  0  0  0
    3.6150    6.2060   17.7690 C   0  0  0  0  0  0  0  0  0  0  0  0
    3.5570    4.8030   17.7440 C   0  0  0  0  0  0  0  0  0  0  0  0
    5.9810    4.1600   15.4350 H   0  0  0  0  0  0  0  0  0  0  0  0
    6.0970    6.6060   15.4580 H   0  0  0  0  0  0  0  0  0  0  0  0
    4.6130    7.9270   16.9140 H   0  0  0  0  0  0  0  0  0  0  0  0
    2.8530    4.2770   18.3880 H   0  0  0  0  0  0  0  0  0  0  0  0
    4.2220    2.6950   17.0090 O   0  0  0  0  0  0  0  0  0  0  0  0
    3.4910    2.2150   18.1300 C   0  0  0  0  0  0  0  0  0  0  0  0
    2.8000    1.4170   17.8400 H   0  0  0  0  0  0  0  0  0  0  0  0
    2.9630    3.0320   18.6360 H   0  0  0  0  0  0  0  0  0  0  0  0
    4.2070    1.7930   18.8400 H   0  0  0  0  0  0  0  0  0  0  0  0
    0.7800   10.2250   18.5340 C   0  0  0  0  0  0  0  0  0  0  0  0
   -0.3920   10.1560   17.8370 N   0  0  0  0  0  0  0  0  0  0  0  0
    1.3550   11.2870   18.7310 O   0  0  0  0  0  0  0  0  0  0  0  0
   -0.8200   11.0320   17.5650 H   0  0  0  0  0  0  0  0  0  0  0  0
   -0.9630    9.3220   17.8190 H   0  0  0  0  0  0  0  0  0  0  0  0
    0.1070    9.2470   21.2910 C   0  0  0  0  0  0  0  0  0  0  0  0
   -0.9380    9.0930   20.9980 H   0  0  0  0  0  0  0  0  0  0  0  0
    0.2010    8.8650   22.3140 H   0  0  0  0  0  0  0  0  0  0  0  0
    0.3810   10.6630   21.2900 N   0  0  0  0  0  0  0  0  0  0  0  0
   -0.4590   11.5040   21.9780 C   0  0  0  0  0  0  0  0  0  0  0  0
   -1.3310   11.1090   22.7390 O   0  0  0  0  0  0  0  0  0  0  0  0
   -0.1600   12.8140   21.7200 N   0  0  0  0  0  0  0  0  0  0  0  0
    0.6560   11.0150   20.3780 H   0  0  0  0  0  0  0  0  0  0  0  0
    0.4560   12.9770   20.9400 H   0  0  0  0  0  0  0  0  0  0  0  0
   -0.9440   13.9440   22.1650 C   0  0  2  0  0  0  0  0  0  0  0  0
   -1.0080   14.1790   23.6860 C   0  0  0  0  0  0  0  0  0  0  0  0
   -2.3080   14.9590   23.9370 C   0  0  0  0  0  0  0  0  0  0  0  0
   -3.1700   14.4920   22.8050 C   0  0  0  0  0  0  0  0  0  0  0  0
   -4.5430   14.6240   22.6730 C   0  0  0  0  0  0  0  0  0  0  0  0
   -5.1470   14.1420   21.5100 C   0  0  0  0  0  0  0  0  0  0  0  0
   -4.3760   13.5490   20.4960 C   0  0  0  0  0  0  0  0  0  0  0  0
   -2.9910   13.4320   20.6320 C   0  0  0  0  0  0  0  0  0  0  0  0
   -2.3990   13.9030   21.7950 C   0  0  0  0  0  0  0  0  0  0  0  0
   -0.5040   14.8300   21.6890 H   0  0  0  0  0  0  0  0  0  0  0  0
   -0.1270   14.7160   24.0560 H   0  0  0  0  0  0  0  0  0  0  0  0
   -1.0510   13.2370   24.2460 H   0  0  0  0  0  0  0  0  0  0  0  0
   -2.7350   14.7170   24.9140 H   0  0  0  0  0  0  0  0  0  0  0  0
   -2.1400   16.0380   23.8600 H   0  0  0  0  0  0  0  0  0  0  0  0
   -5.1390   15.0860   23.4540 H   0  0  0  0  0  0  0  0  0  0  0  0
   -6.2230   14.2250   21.3860 H   0  0  0  0  0  0  0  0  0  0  0  0
   -4.8630   13.1760   19.5990 H   0  0  0  0  0  0  0  0  0  0  0  0
   -2.3970   12.9750   19.8460 H   0  0  0  0  0  0  0  0  0  0  0  0
  1  2  1  0  0  0  0
  2  7  1  0  0  0  0
  2  3  2  0  0  0  0
  3  8  1  0  0  0  0
  4  3  1  0  0  0  0
  4 30  1  0  0  0  0
  5  4  2  0  0  0  0
  6  1  2  0  0  0  0
  6  5  1  0  0  0  0
  9  6  1  0  0  0  0
 10 20  1  0  0  0  0
 10 15  1  0  0  0  0
 11 12  1  0  0  0  0
 11 10  2  0  0  0  0
 12 13  2  0  0  0  0
 13 14  1  0  0  0  0
 14  1  1  0  0  0  0
 15 14  2  0  0  0  0
 15 19  1  0  0  0  0
 16 11  1  0  0  0  0
 17 12  1  0  0  0  0
 18 13  1  0  0  0  0
 20 21  1  0  0  0  0
 21 23  1  0  0  0  0
 21 24  1  0  0  0  0
 22 21  1  0  0  0  0
 25 27  2  0  0  0  0
 25  5  1  0  0  0  0
 26 25  1  0  0  0  0
 28 26  1  0  0  0  0
 29 26  1  0  0  0  0
 30 32  1  0  0  0  0
 31 30  1  0  0  0  0
 33 30  1  0  0  0  0
 33 34  1  0  0  0  0
 34 35  2  0  0  0  0
 36 34  1  0  0  0  0
 36 39  1  0  0  0  0
 37 33  1  0  0  0  0
 38 36  1  0  0  0  0
 39 48  1  6  0  0  0
 39 40  1  0  0  0  0
 40 41  1  0  0  0  0
 40 49  1  0  0  0  0
 40 50  1  0  0  0  0
 41 51  1  0  0  0  0
 42 41  1  0  0  0  0
 43 42  1  0  0  0  0
 43 53  1  0  0  0  0
 44 43  2  0  0  0  0
 45 46  2  0  0  0  0
 45 44  1  0  0  0  0
 46 47  1  0  0  0  0
 47 39  1  0  0  0  0
 47 42  2  0  0  0  0
 52 41  1  0  0  0  0
 54 44  1  0  0  0  0
 55 45  1  0  0  0  0
 56 46  1  0  0  0  0
M  END
>  <MODEL>
12

>  <REMARK>
 VINA RESULT:    -7.285      3.227      5.758
 INTER + INTRA:         -10.749
 INTER:                 -10.390
 INTRA:                  -0.359
 UNBOUND:                -0.696
  Name = 
  7 active torsions:
  status: ('A' for Active; 'I' for Inactive)
    1  A    between atoms: C_1  and  O_2
    2  A    between atoms: O_2  and  C_3
    3  A    between atoms: C_7  and  C_8
    4  A    between atoms: C_11  and  C_12
    5  A    between atoms: C_12  and  N_13
    6  A    between atoms: N_16  and  C_17
    7  A    between atoms: C_26  and  C_27
                            x       y       z     vdW  Elec       q    Type
                         _______ _______ _______ _____ _____    ______ ____

>  <TORSDO>
F 7

$$$$
=
 OpenBabel07192307433D

 56 59  0  0  1  0  0  0  0  0999 V2000
    2.2100    6.3940   18.7970 C   0  0  0  0  0  0  0  0  0  0  0  0
    2.4020    7.2480   17.7020 C   0  0  0  0  0  0  0  0  0  0  0  0
    2.1730    8.6240   17.8080 C   0  0  0  0  0  0  0  0  0  0  0  0
    1.7440    9.1940   19.0160 C   0  0  0  0  0  0  0  0  0  0  0  0
    1.5390    8.3410   20.1160 C   0  0  0  0  0  0  0  0  0  0  0  0
    1.7730    6.9590   20.0040 C   0  0  0  0  0  0  0  0  0  0  0  0
    2.7400    6.8450   16.7480 H   0  0  0  0  0  0  0  0  0  0  0  0
    2.3310    9.2520   16.9310 H   0  0  0  0  0  0  0  0  0  0  0  0
    1.5720    6.3100   20.8540 H   0  0  0  0  0  0  0  0  0  0  0  0
    2.1680    2.6760   19.5540 C   0  0  0  0  0  0  0  0  0  0  0  0
    2.8810    2.1700   18.4690 C   0  0  0  0  0  0  0  0  0  0  0  0
    3.3750    3.0380   17.4920 C   0  0  0  0  0  0  0  0  0  0  0  0
    3.1570    4.4120   17.5980 C   0  0  0  0  0  0  0  0  0  0  0  0
    2.4420    4.9460   18.6800 C   0  0  0  0  0  0  0  0  0  0  0  0
    1.9530    4.0560   19.6500 C   0  0  0  0  0  0  0  0  0  0  0  0
    3.0700    1.1080   18.3520 H   0  0  0  0  0  0  0  0  0  0  0  0
    3.9270    2.6400   16.6450 H   0  0  0  0  0  0  0  0  0  0  0  0
    3.5410    5.0670   16.8190 H   0  0  0  0  0  0  0  0  0  0  0  0
    1.4010    4.4370   20.5090 H   0  0  0  0  0  0  0  0  0  0  0  0
    1.6330    1.9430   20.5780 O   0  0  0  0  0  0  0  0  0  0  0  0
    1.6310    2.5440   21.8670 C   0  0  0  0  0  0  0  0  0  0  0  0
    2.2520    3.4450   21.8850 H   0  0  0  0  0  0  0  0  0  0  0  0
    1.9450    1.8300   22.6360 H   0  0  0  0  0  0  0  0  0  0  0  0
    0.6030    2.8460   22.0930 H   0  0  0  0  0  0  0  0  0  0  0  0
    1.0240    8.8590   21.4090 C   0  0  0  0  0  0  0  0  0  0  0  0
    1.9640    9.1560   22.3540 N   0  0  0  0  0  0  0  0  0  0  0  0
   -0.1720    9.0180   21.6130 O   0  0  0  0  0  0  0  0  0  0  0  0
    1.6410    9.6030   23.2020 H   0  0  0  0  0  0  0  0  0  0  0  0
    2.9510    9.1980   22.1410 H   0  0  0  0  0  0  0  0  0  0  0  0
    1.5400   10.6880   19.0870 C   0  0  0  0  0  0  0  0  0  0  0  0
    2.3450   11.1530   19.6680 H   0  0  0  0  0  0  0  0  0  0  0  0
    1.5850   11.1340   18.0850 H   0  0  0  0  0  0  0  0  0  0  0  0
    0.2780   11.0280   19.6950 N   0  0  0  0  0  0  0  0  0  0  0  0
    0.0900   12.3020   20.1740 C   0  0  0  0  0  0  0  0  0  0  0  0
    0.8680   13.2220   19.9600 O   0  0  0  0  0  0  0  0  0  0  0  0
   -1.0810   12.3950   20.8760 N   0  0  0  0  0  0  0  0  0  0  0  0
   -0.0750   10.3030   20.3130 H   0  0  0  0  0  0  0  0  0  0  0  0
   -1.5160   11.5200   21.1190 H   0  0  0  0  0  0  0  0  0  0  0  0
   -1.5000   13.5520   21.6330 C   0  0  2  0  0  0  0  0  0  0  0  0
   -0.5970   13.9680   22.8090 C   0  0  0  0  0  0  0  0  0  0  0  0
   -1.5020   14.7440   23.7800 C   0  0  0  0  0  0  0  0  0  0  0  0
   -2.8400   14.1240   23.5160 C   0  0  0  0  0  0  0  0  0  0  0  0
   -3.9820   14.2080   24.2950 C   0  0  0  0  0  0  0  0  0  0  0  0
   -5.1410   13.5750   23.8420 C   0  0  0  0  0  0  0  0  0  0  0  0
   -5.1470   12.8800   22.6210 C   0  0  0  0  0  0  0  0  0  0  0  0
   -3.9930   12.8120   21.8360 C   0  0  0  0  0  0  0  0  0  0  0  0
   -2.8420   13.4330   22.2980 C   0  0  0  0  0  0  0  0  0  0  0  0
   -1.5550   14.3830   20.9180 H   0  0  0  0  0  0  0  0  0  0  0  0
    0.2590   14.5660   22.4780 H   0  0  0  0  0  0  0  0  0  0  0  0
   -0.1820   13.1010   23.3350 H   0  0  0  0  0  0  0  0  0  0  0  0
   -1.1780   14.6130   24.8160 H   0  0  0  0  0  0  0  0  0  0  0  0
   -1.5270   15.8100   23.5290 H   0  0  0  0  0  0  0  0  0  0  0  0
   -3.9800   14.7480   25.2360 H   0  0  0  0  0  0  0  0  0  0  0  0
   -6.0490   13.6180   24.4380 H   0  0  0  0  0  0  0  0  0  0  0  0
   -6.0570   12.3910   22.2850 H   0  0  0  0  0  0  0  0  0  0  0  0
   -4.0010   12.2760   20.8920 H   0  0  0  0  0  0  0  0  0  0  0  0
  1  6  1  0  0  0  0
  2  3  1  0  0  0  0
  2  1  2  0  0  0  0
  3  4  2  0  0  0  0
  4 30  1  0  0  0  0
  4  5  1  0  0  0  0
  5 25  1  0  0  0  0
  6  5  2  0  0  0  0
  6  9  1  0  0  0  0
  7  2  1  0  0  0  0
  8  3  1  0  0  0  0
 10 15  1  0  0  0  0
 10 20  1  0  0  0  0
 11 10  2  0  0  0  0
 12 13  2  0  0  0  0
 12 11  1  0  0  0  0
 13 14  1  0  0  0  0
 14  1  1  0  0  0  0
 14 15  2  0  0  0  0
 15 19  1  0  0  0  0
 16 11  1  0  0  0  0
 17 12  1  0  0  0  0
 18 13  1  0  0  0  0
 20 21  1  0  0  0  0
 21 22  1  0  0  0  0
 21 24  1  0  0  0  0
 21 23  1  0  0  0  0
 25 27  2  0  0  0  0
 25 26  1  0  0  0  0
 26 28  1  0  0  0  0
 29 26  1  0  0  0  0
 30 31  1  0  0  0  0
 30 33  1  0  0  0  0
 32 30  1  0  0  0  0
 33 34  1  0  0  0  0
 33 37  1  0  0  0  0
 34 36  1  0  0  0  0
 35 34  2  0  0  0  0
 36 38  1  0  0  0  0
 36 39  1  0  0  0  0
 39 48  1  6  0  0  0
 39 47  1  0  0  0  0
 39 40  1  0  0  0  0
 40 50  1  0  0  0  0
 40 41  1  0  0  0  0
 41 51  1  0  0  0  0
 42 41  1  0  0  0  0
 42 43  1  0  0  0  0
 43 53  1  0  0  0  0
 44 43  2  0  0  0  0
 44 54  1  0  0  0  0
 45 44  1  0  0  0  0
 46 47  1  0  0  0  0
 46 45  2  0  0  0  0
 47 42  2  0  0  0  0
 49 40  1  0  0  0  0
 52 41  1  0  0  0  0
 55 45  1  0  0  0  0
 56 46  1  0  0  0  0
M  END
>  <MODEL>
13

>  <REMARK>
 VINA RESULT:    -7.279      3.844      6.484
 INTER + INTRA:         -10.742
 INTER:                 -10.094
 INTRA:                  -0.648
 UNBOUND:                -0.696
  Name = 
  7 active torsions:
  status: ('A' for Active; 'I' for Inactive)
    1  A    between atoms: C_1  and  O_2
    2  A    between atoms: O_2  and  C_3
    3  A    between atoms: C_7  and  C_8
    4  A    between atoms: C_11  and  C_12
    5  A    between atoms: C_12  and  N_13
    6  A    between atoms: N_16  and  C_17
    7  A    between atoms: C_26  and  C_27
                            x       y       z     vdW  Elec       q    Type
                         _______ _______ _______ _____ _____    ______ ____

>  <TORSDO>
F 7

$$$$
=
 OpenBabel07192307433D

 56 59  0  0  1  0  0  0  0  0999 V2000
   -0.8570   12.3390   21.6400 C   0  0  0  0  0  0  0  0  0  0  0  0
   -0.5820   12.7580   20.3320 C   0  0  0  0  0  0  0  0  0  0  0  0
   -0.0290   11.8820   19.3910 C   0  0  0  0  0  0  0  0  0  0  0  0
    0.2660   10.5530   19.7290 C   0  0  0  0  0  0  0  0  0  0  0  0
    0.0010   10.1280   21.0440 C   0  0  0  0  0  0  0  0  0  0  0  0
   -0.5560   11.0130   21.9840 C   0  0  0  0  0  0  0  0  0  0  0  0
   -0.8020   13.7810   20.0280 H   0  0  0  0  0  0  0  0  0  0  0  0
    0.1730   12.2500   18.3850 H   0  0  0  0  0  0  0  0  0  0  0  0
   -0.7170   10.6780   23.0070 H   0  0  0  0  0  0  0  0  0  0  0  0
   -3.2750   13.9370   24.0900 C   0  0  0  0  0  0  0  0  0  0  0  0
   -2.5360   15.0360   24.5220 C   0  0  0  0  0  0  0  0  0  0  0  0
   -1.2520   15.2570   24.0180 C   0  0  0  0  0  0  0  0  0  0  0  0
   -0.7050   14.3800   23.0800 C   0  0  0  0  0  0  0  0  0  0  0  0
   -1.4280   13.2660   22.6300 C   0  0  0  0  0  0  0  0  0  0  0  0
   -2.7170   13.0620   23.1510 C   0  0  0  0  0  0  0  0  0  0  0  0
   -2.9270   15.7390   25.2510 H   0  0  0  0  0  0  0  0  0  0  0  0
   -0.6760   16.1120   24.3600 H   0  0  0  0  0  0  0  0  0  0  0  0
    0.3010   14.5660   22.7100 H   0  0  0  0  0  0  0  0  0  0  0  0
   -3.3100   12.2120   22.8150 H   0  0  0  0  0  0  0  0  0  0  0  0
   -4.5370   13.6050   24.4980 O   0  0  0  0  0  0  0  0  0  0  0  0
   -4.7430   12.2660   24.9310 C   0  0  0  0  0  0  0  0  0  0  0  0
   -3.7900   11.7600   25.1180 H   0  0  0  0  0  0  0  0  0  0  0  0
   -5.3550   11.7080   24.2140 H   0  0  0  0  0  0  0  0  0  0  0  0
   -5.2900   12.3010   25.8780 H   0  0  0  0  0  0  0  0  0  0  0  0
    0.3460    8.7560   21.4960 C   0  0  0  0  0  0  0  0  0  0  0  0
   -0.6720    7.8460   21.4810 N   0  0  0  0  0  0  0  0  0  0  0  0
    1.4770    8.4570   21.8530 O   0  0  0  0  0  0  0  0  0  0  0  0
   -0.4350    6.8840   21.6900 H   0  0  0  0  0  0  0  0  0  0  0  0
   -1.5560    8.0290   21.0270 H   0  0  0  0  0  0  0  0  0  0  0  0
    0.8330    9.6390   18.6700 C   0  0  0  0  0  0  0  0  0  0  0  0
    0.0550    8.9620   18.2980 H   0  0  0  0  0  0  0  0  0  0  0  0
    1.1800   10.2160   17.8040 H   0  0  0  0  0  0  0  0  0  0  0  0
    1.9270    8.8470   19.1760 N   0  0  0  0  0  0  0  0  0  0  0  0
    2.2600    7.6810   18.5300 C   0  0  0  0  0  0  0  0  0  0  0  0
    1.7960    7.3560   17.4460 O   0  0  0  0  0  0  0  0  0  0  0  0
    3.1880    6.9730   19.2450 N   0  0  0  0  0  0  0  0  0  0  0  0
    1.9280    8.7700   20.1880 H   0  0  0  0  0  0  0  0  0  0  0  0
    3.3340    7.2760   20.1940 H   0  0  0  0  0  0  0  0  0  0  0  0
    3.6370    5.6380   18.9210 C   0  0  2  0  0  0  0  0  0  0  0  0
    4.1450    5.4140   17.4840 C   0  0  0  0  0  0  0  0  0  0  0  0
    3.9640    3.9140   17.2030 C   0  0  0  0  0  0  0  0  0  0  0  0
    2.7980    3.5750   18.0800 C   0  0  0  0  0  0  0  0  0  0  0  0
    1.9990    2.4450   18.0310 C   0  0  0  0  0  0  0  0  0  0  0  0
    0.9770    2.3130   18.9730 C   0  0  0  0  0  0  0  0  0  0  0  0
    0.7740    3.3000   19.9520 C   0  0  0  0  0  0  0  0  0  0  0  0
    1.5930    4.4310   20.0020 C   0  0  0  0  0  0  0  0  0  0  0  0
    2.6000    4.5600   19.0560 C   0  0  0  0  0  0  0  0  0  0  0  0
    4.4490    5.4090   19.6220 H   0  0  0  0  0  0  0  0  0  0  0  0
    5.1860    5.7330   17.3620 H   0  0  0  0  0  0  0  0  0  0  0  0
    3.5610    5.9810   16.7490 H   0  0  0  0  0  0  0  0  0  0  0  0
    3.7580    3.7290   16.1450 H   0  0  0  0  0  0  0  0  0  0  0  0
    4.8460    3.3450   17.5160 H   0  0  0  0  0  0  0  0  0  0  0  0
    2.1570    1.6790   17.2780 H   0  0  0  0  0  0  0  0  0  0  0  0
    0.3300    1.4400   18.9500 H   0  0  0  0  0  0  0  0  0  0  0  0
   -0.0270    3.1840   20.6760 H   0  0  0  0  0  0  0  0  0  0  0  0
    1.4360    5.1910   20.7610 H   0  0  0  0  0  0  0  0  0  0  0  0
  1  6  1  0  0  0  0
  1 14  1  0  0  0  0
  2  1  2  0  0  0  0
  3  4  2  0  0  0  0
  3  2  1  0  0  0  0
  4  5  1  0  0  0  0
  5 25  1  0  0  0  0
  5  6  2  0  0  0  0
  6  9  1  0  0  0  0
  7  2  1  0  0  0  0
  8  3  1  0  0  0  0
 10 20  1  0  0  0  0
 10 11  1  0  0  0  0
 11 16  1  0  0  0  0
 12 17  1  0  0  0  0
 12 11  2  0  0  0  0
 13 12  1  0  0  0  0
 14 13  2  0  0  0  0
 14 15  1  0  0  0  0
 15 10  2  0  0  0  0
 18 13  1  0  0  0  0
 19 15  1  0  0  0  0
 20 21  1  0  0  0  0
 21 22  1  0  0  0  0
 21 24  1  0  0  0  0
 23 21  1  0  0  0  0
 25 27  2  0  0  0  0
 26 25  1  0  0  0  0
 26 28  1  0  0  0  0
 29 26  1  0  0  0  0
 30 33  1  0  0  0  0
 30  4  1  0  0  0  0
 31 30  1  0  0  0  0
 32 30  1  0  0  0  0
 33 37  1  0  0  0  0
 34 33  1  0  0  0  0
 34 36  1  0  0  0  0
 35 34  2  0  0  0  0
 36 38  1  0  0  0  0
 39 47  1  0  0  0  0
 39 36  1  0  0  0  0
 39 48  1  1  0  0  0
 40 39  1  0  0  0  0
 41 40  1  0  0  0  0
 41 52  1  0  0  0  0
 41 42  1  0  0  0  0
 42 47  1  0  0  0  0
 43 42  2  0  0  0  0
 43 44  1  0  0  0  0
 44 45  2  0  0  0  0
 45 46  1  0  0  0  0
 45 55  1  0  0  0  0
 46 56  1  0  0  0  0
 47 46  2  0  0  0  0
 49 40  1  0  0  0  0
 50 40  1  0  0  0  0
 51 41  1  0  0  0  0
 53 43  1  0  0  0  0
 54 44  1  0  0  0  0
M  END
>  <MODEL>
14

>  <REMARK>
 VINA RESULT:    -7.178      3.208     10.740
 INTER + INTRA:         -10.601
 INTER:                 -10.218
 INTRA:                  -0.383
 UNBOUND:                -0.696
  Name = 
  7 active torsions:
  status: ('A' for Active; 'I' for Inactive)
    1  A    between atoms: C_1  and  O_2
    2  A    between atoms: O_2  and  C_3
    3  A    between atoms: C_7  and  C_8
    4  A    between atoms: C_11  and  C_12
    5  A    between atoms: C_12  and  N_13
    6  A    between atoms: N_16  and  C_17
    7  A    between atoms: C_26  and  C_27
                            x       y       z     vdW  Elec       q    Type
                         _______ _______ _______ _____ _____    ______ ____

>  <TORSDO>
F 7

$$$$
=
 OpenBabel07192307433D

 56 59  0  0  1  0  0  0  0  0999 V2000
   -1.6040   12.0040   19.6220 C   0  0  0  0  0  0  0  0  0  0  0  0
   -1.7150   10.6820   19.1720 C   0  0  0  0  0  0  0  0  0  0  0  0
   -0.6250   10.0180   18.5960 C   0  0  0  0  0  0  0  0  0  0  0  0
    0.6150   10.6570   18.4520 C   0  0  0  0  0  0  0  0  0  0  0  0
    0.7300   11.9890   18.8930 C   0  0  0  0  0  0  0  0  0  0  0  0
   -0.3670   12.6490   19.4720 C   0  0  0  0  0  0  0  0  0  0  0  0
   -2.6600   10.1490   19.2710 H   0  0  0  0  0  0  0  0  0  0  0  0
   -0.7560    8.9910   18.2550 H   0  0  0  0  0  0  0  0  0  0  0  0
   -0.2700   13.6910   19.7720 H   0  0  0  0  0  0  0  0  0  0  0  0
   -3.6690   14.2520   21.8770 C   0  0  0  0  0  0  0  0  0  0  0  0
   -4.9490   14.0430   21.3690 C   0  0  0  0  0  0  0  0  0  0  0  0
   -5.1400   13.1730   20.2930 C   0  0  0  0  0  0  0  0  0  0  0  0
   -4.0530   12.5080   19.7240 C   0  0  0  0  0  0  0  0  0  0  0  0
   -2.7540   12.7020   20.2170 C   0  0  0  0  0  0  0  0  0  0  0  0
   -2.5840   13.5830   21.2980 C   0  0  0  0  0  0  0  0  0  0  0  0
   -5.8190   14.5420   21.7840 H   0  0  0  0  0  0  0  0  0  0  0  0
   -6.1400   13.0150   19.8960 H   0  0  0  0  0  0  0  0  0  0  0  0
   -4.2250   11.8440   18.8800 H   0  0  0  0  0  0  0  0  0  0  0  0
   -1.5900   13.7490   21.7120 H   0  0  0  0  0  0  0  0  0  0  0  0
   -3.3410   15.0710   22.9220 O   0  0  0  0  0  0  0  0  0  0  0  0
   -4.3020   15.2030   23.9620 C   0  0  0  0  0  0  0  0  0  0  0  0
   -5.0500   14.4060   23.9140 H   0  0  0  0  0  0  0  0  0  0  0  0
   -4.7730   16.1910   23.9410 H   0  0  0  0  0  0  0  0  0  0  0  0
   -3.7760   15.1060   24.9170 H   0  0  0  0  0  0  0  0  0  0  0  0
    1.9910   12.7540   18.7170 C   0  0  0  0  0  0  0  0  0  0  0  0
    2.3630   13.0100   17.4280 N   0  0  0  0  0  0  0  0  0  0  0  0
    2.6530   13.1390   19.6710 O   0  0  0  0  0  0  0  0  0  0  0  0
    3.1630   13.6140   17.2890 H   0  0  0  0  0  0  0  0  0  0  0  0
    1.7430   12.8540   16.6440 H   0  0  0  0  0  0  0  0  0  0  0  0
    1.7680    9.8880   17.8520 C   0  0  0  0  0  0  0  0  0  0  0  0
    1.4740    9.4590   16.8870 H   0  0  0  0  0  0  0  0  0  0  0  0
    2.6140   10.5550   17.6490 H   0  0  0  0  0  0  0  0  0  0  0  0
    2.2060    8.8210   18.7160 N   0  0  0  0  0  0  0  0  0  0  0  0
    2.8660    7.7480   18.1670 C   0  0  0  0  0  0  0  0  0  0  0  0
    3.2600    7.7210   17.0100 O   0  0  0  0  0  0  0  0  0  0  0  0
    3.0430    6.7550   19.0930 N   0  0  0  0  0  0  0  0  0  0  0  0
    1.5150    8.5630   19.4140 H   0  0  0  0  0  0  0  0  0  0  0  0
    2.5080    6.8480   19.9410 H   0  0  0  0  0  0  0  0  0  0  0  0
    3.5650    5.4400   18.8030 C   0  0  2  0  0  0  0  0  0  0  0  0
    4.1320    5.2220   17.3870 C   0  0  0  0  0  0  0  0  0  0  0  0
    4.0320    3.7120   17.1220 C   0  0  0  0  0  0  0  0  0  0  0  0
    2.8530    3.3290   17.9640 C   0  0  0  0  0  0  0  0  0  0  0  0
    2.1110    2.1610   17.9030 C   0  0  0  0  0  0  0  0  0  0  0  0
    1.0640    1.9930   18.8120 C   0  0  0  0  0  0  0  0  0  0  0  0
    0.7820    2.9810   19.7690 C   0  0  0  0  0  0  0  0  0  0  0  0
    1.5440    4.1500   19.8310 C   0  0  0  0  0  0  0  0  0  0  0  0
    2.5760    4.3150   18.9180 C   0  0  0  0  0  0  0  0  0  0  0  0
    4.3630    5.2580   19.5350 H   0  0  0  0  0  0  0  0  0  0  0  0
    5.1600    5.5890   17.2970 H   0  0  0  0  0  0  0  0  0  0  0  0
    3.5490    5.7510   16.6250 H   0  0  0  0  0  0  0  0  0  0  0  0
    3.8710    3.5040   16.0600 H   0  0  0  0  0  0  0  0  0  0  0  0
    4.9290    3.1900   17.4720 H   0  0  0  0  0  0  0  0  0  0  0  0
    2.3310    1.3940   17.1660 H   0  0  0  0  0  0  0  0  0  0  0  0
    0.4600    1.0900   18.7790 H   0  0  0  0  0  0  0  0  0  0  0  0
   -0.0380    2.8350   20.4670 H   0  0  0  0  0  0  0  0  0  0  0  0
    1.3260    4.9110   20.5730 H   0  0  0  0  0  0  0  0  0  0  0  0
  1 14  1  0  0  0  0
  2  7  1  0  0  0  0
  2  1  2  0  0  0  0
  3  2  1  0  0  0  0
  4  3  2  0  0  0  0
  4  5  1  0  0  0  0
  5  6  2  0  0  0  0
  6  1  1  0  0  0  0
  6  9  1  0  0  0  0
  8  3  1  0  0  0  0
 10 20  1  0  0  0  0
 11 16  1  0  0  0  0
 11 10  1  0  0  0  0
 12 11  2  0  0  0  0
 13 14  2  0  0  0  0
 13 12  1  0  0  0  0
 14 15  1  0  0  0  0
 15 19  1  0  0  0  0
 15 10  2  0  0  0  0
 17 12  1  0  0  0  0
 18 13  1  0  0  0  0
 20 21  1  0  0  0  0
 21 24  1  0  0  0  0
 22 21  1  0  0  0  0
 23 21  1  0  0  0  0
 25  5  1  0  0  0  0
 25 27  2  0  0  0  0
 26 25  1  0  0  0  0
 28 26  1  0  0  0  0
 29 26  1  0  0  0  0
 30  4  1  0  0  0  0
 30 33  1  0  0  0  0
 31 30  1  0  0  0  0
 32 30  1  0  0  0  0
 33 37  1  0  0  0  0
 34 33  1  0  0  0  0
 34 36  1  0  0  0  0
 35 34  2  0  0  0  0
 36 38  1  0  0  0  0
 39 47  1  0  0  0  0
 39 36  1  0  0  0  0
 39 48  1  1  0  0  0
 40 39  1  0  0  0  0
 41 40  1  0  0  0  0
 41 52  1  0  0  0  0
 41 42  1  0  0  0  0
 42 47  1  0  0  0  0
 43 42  2  0  0  0  0
 43 44  1  0  0  0  0
 44 45  2  0  0  0  0
 45 46  1  0  0  0  0
 45 55  1  0  0  0  0
 46 56  1  0  0  0  0
 47 46  2  0  0  0  0
 49 40  1  0  0  0  0
 50 40  1  0  0  0  0
 51 41  1  0  0  0  0
 53 43  1  0  0  0  0
 54 44  1  0  0  0  0
M  END
>  <MODEL>
15

>  <REMARK>
 VINA RESULT:    -7.155      3.737     10.846
 INTER + INTRA:         -10.570
 INTER:                 -10.531
 INTRA:                  -0.038
 UNBOUND:                -0.696
  Name = 
  7 active torsions:
  status: ('A' for Active; 'I' for Inactive)
    1  A    between atoms: C_1  and  O_2
    2  A    between atoms: O_2  and  C_3
    3  A    between atoms: C_7  and  C_8
    4  A    between atoms: C_11  and  C_12
    5  A    between atoms: C_12  and  N_13
    6  A    between atoms: N_16  and  C_17
    7  A    between atoms: C_26  and  C_27
                            x       y       z     vdW  Elec       q    Type
                         _______ _______ _______ _____ _____    ______ ____

>  <TORSDO>
F 7

$$$$
=
 OpenBabel07192307433D

 56 59  0  0  1  0  0  0  0  0999 V2000
    4.0440    6.1980   18.0510 C   0  0  0  0  0  0  0  0  0  0  0  0
    3.7260    5.6990   19.3210 C   0  0  0  0  0  0  0  0  0  0  0  0
    2.7110    6.2740   20.0940 C   0  0  0  0  0  0  0  0  0  0  0  0
    1.9760    7.3700   19.6190 C   0  0  0  0  0  0  0  0  0  0  0  0
    2.2960    7.8830   18.3480 C   0  0  0  0  0  0  0  0  0  0  0  0
    3.3160    7.3000   17.5760 C   0  0  0  0  0  0  0  0  0  0  0  0
    4.2700    4.8450   19.7230 H   0  0  0  0  0  0  0  0  0  0  0  0
    2.5000    5.8560   21.0780 H   0  0  0  0  0  0  0  0  0  0  0  0
    3.5760    7.7340   16.6130 H   0  0  0  0  0  0  0  0  0  0  0  0
    5.9200    4.6800   15.1230 C   0  0  0  0  0  0  0  0  0  0  0  0
    7.1690    4.4440   15.6940 C   0  0  0  0  0  0  0  0  0  0  0  0
    7.4000    4.7780   17.0300 C   0  0  0  0  0  0  0  0  0  0  0  0
    6.3840    5.3490   17.7980 C   0  0  0  0  0  0  0  0  0  0  0  0
    5.1190    5.5980   17.2460 C   0  0  0  0  0  0  0  0  0  0  0  0
    4.9080    5.2560   15.9000 C   0  0  0  0  0  0  0  0  0  0  0  0
    7.9840    4.0030   15.1290 H   0  0  0  0  0  0  0  0  0  0  0  0
    8.3760    4.5970   17.4720 H   0  0  0  0  0  0  0  0  0  0  0  0
    6.5910    5.6110   18.8330 H   0  0  0  0  0  0  0  0  0  0  0  0
    3.9340    5.4260   15.4430 H   0  0  0  0  0  0  0  0  0  0  0  0
    5.5590    4.4020   13.8330 O   0  0  0  0  0  0  0  0  0  0  0  0
    6.4770    3.6420   13.0580 C   0  0  0  0  0  0  0  0  0  0  0  0
    7.3430    4.2450   12.7660 H   0  0  0  0  0  0  0  0  0  0  0  0
    5.9860    3.2040   12.1820 H   0  0  0  0  0  0  0  0  0  0  0  0
    6.8400    2.8190   13.6810 H   0  0  0  0  0  0  0  0  0  0  0  0
    1.6080    9.0810   17.8030 C   0  0  0  0  0  0  0  0  0  0  0  0
    2.3520   10.2240   17.7380 N   0  0  0  0  0  0  0  0  0  0  0  0
    0.4440    9.0440   17.4270 O   0  0  0  0  0  0  0  0  0  0  0  0
    1.9340   11.0230   17.2790 H   0  0  0  0  0  0  0  0  0  0  0  0
    3.3540   10.2270   17.8770 H   0  0  0  0  0  0  0  0  0  0  0  0
    0.8710    7.9360   20.4780 C   0  0  0  0  0  0  0  0  0  0  0  0
   -0.0380    8.0770   19.8800 H   0  0  0  0  0  0  0  0  0  0  0  0
    0.6060    7.2360   21.2790 H   0  0  0  0  0  0  0  0  0  0  0  0
    1.2400    9.2010   21.0610 N   0  0  0  0  0  0  0  0  0  0  0  0
    0.4200   10.2870   20.8690 C   0  0  0  0  0  0  0  0  0  0  0  0
   -0.6970   10.2090   20.3780 O   0  0  0  0  0  0  0  0  0  0  0  0
    1.0100   11.4330   21.3290 N   0  0  0  0  0  0  0  0  0  0  0  0
    2.2280    9.4120   20.9630 H   0  0  0  0  0  0  0  0  0  0  0  0
    1.9930   11.3670   21.5360 H   0  0  0  0  0  0  0  0  0  0  0  0
    0.4820   12.7660   21.1450 C   0  0  2  0  0  0  0  0  0  0  0  0
    1.5060   13.9170   21.1400 C   0  0  0  0  0  0  0  0  0  0  0  0
    0.7260   15.1750   21.5540 C   0  0  0  0  0  0  0  0  0  0  0  0
   -0.3560   14.5970   22.4140 C   0  0  0  0  0  0  0  0  0  0  0  0
   -1.1830   15.2670   23.3010 C   0  0  0  0  0  0  0  0  0  0  0  0
   -2.1550   14.5330   23.9840 C   0  0  0  0  0  0  0  0  0  0  0  0
   -2.2940   13.1530   23.7650 C   0  0  0  0  0  0  0  0  0  0  0  0
   -1.4640   12.4880   22.8600 C   0  0  0  0  0  0  0  0  0  0  0  0
   -0.4930   13.2210   22.1930 C   0  0  0  0  0  0  0  0  0  0  0  0
   -0.0450   12.7570   20.1820 H   0  0  0  0  0  0  0  0  0  0  0  0
    1.9860   14.0330   20.1620 H   0  0  0  0  0  0  0  0  0  0  0  0
    2.3130   13.7510   21.8620 H   0  0  0  0  0  0  0  0  0  0  0  0
    1.3640   15.8760   22.0990 H   0  0  0  0  0  0  0  0  0  0  0  0
    0.2870   15.6710   20.6820 H   0  0  0  0  0  0  0  0  0  0  0  0
   -1.0790   16.3350   23.4670 H   0  0  0  0  0  0  0  0  0  0  0  0
   -2.8110   15.0330   24.6920 H   0  0  0  0  0  0  0  0  0  0  0  0
   -3.0540   12.5970   24.3070 H   0  0  0  0  0  0  0  0  0  0  0  0
   -1.5760   11.4220   22.6910 H   0  0  0  0  0  0  0  0  0  0  0  0
  1  2  1  0  0  0  0
  2  7  1  0  0  0  0
  2  3  2  0  0  0  0
  3  8  1  0  0  0  0
  4  3  1  0  0  0  0
  4 30  1  0  0  0  0
  5  4  2  0  0  0  0
  6  1  2  0  0  0  0
  6  5  1  0  0  0  0
  9  6  1  0  0  0  0
 10 11  2  0  0  0  0
 10 15  1  0  0  0  0
 11 12  1  0  0  0  0
 12 17  1  0  0  0  0
 12 13  2  0  0  0  0
 13 18  1  0  0  0  0
 14 13  1  0  0  0  0
 14  1  1  0  0  0  0
 15 14  2  0  0  0  0
 16 11  1  0  0  0  0
 19 15  1  0  0  0  0
 20 10  1  0  0  0  0
 21 24  1  0  0  0  0
 21 20  1  0  0  0  0
 22 21  1  0  0  0  0
 23 21  1  0  0  0  0
 25  5  1  0  0  0  0
 26 25  1  0  0  0  0
 26 29  1  0  0  0  0
 27 25  2  0  0  0  0
 28 26  1  0  0  0  0
 30 33  1  0  0  0  0
 30 32  1  0  0  0  0
 31 30  1  0  0  0  0
 34 33  1  0  0  0  0
 34 36  1  0  0  0  0
 35 34  2  0  0  0  0
 36 38  1  0  0  0  0
 37 33  1  0  0  0  0
 39 48  1  6  0  0  0
 39 36  1  0  0  0  0
 39 47  1  0  0  0  0
 40 39  1  0  0  0  0
 40 41  1  0  0  0  0
 40 50  1  0  0  0  0
 41 51  1  0  0  0  0
 41 42  1  0  0  0  0
 42 43  1  0  0  0  0
 43 53  1  0  0  0  0
 43 44  2  0  0  0  0
 44 54  1  0  0  0  0
 45 44  1  0  0  0  0
 45 55  1  0  0  0  0
 46 45  2  0  0  0  0
 47 42  2  0  0  0  0
 47 46  1  0  0  0  0
 49 40  1  0  0  0  0
 52 41  1  0  0  0  0
 56 46  1  0  0  0  0
M  END
>  <MODEL>
16

>  <REMARK>
 VINA RESULT:    -7.132      2.533      4.197
 INTER + INTRA:         -10.538
 INTER:                  -9.674
 INTRA:                  -0.864
 UNBOUND:                -0.696
  Name = 
  7 active torsions:
  status: ('A' for Active; 'I' for Inactive)
    1  A    between atoms: C_1  and  O_2
    2  A    between atoms: O_2  and  C_3
    3  A    between atoms: C_7  and  C_8
    4  A    between atoms: C_11  and  C_12
    5  A    between atoms: C_12  and  N_13
    6  A    between atoms: N_16  and  C_17
    7  A    between atoms: C_26  and  C_27
                            x       y       z     vdW  Elec       q    Type
                         _______ _______ _______ _____ _____    ______ ____

>  <TORSDO>
F 7

$$$$
=
 OpenBabel07192307433D

 56 59  0  0  1  0  0  0  0  0999 V2000
    4.0570    5.3540   18.1220 C   0  0  0  0  0  0  0  0  0  0  0  0
    3.9520    6.5970   17.4830 C   0  0  0  0  0  0  0  0  0  0  0  0
    5.0890    7.3410   17.1510 C   0  0  0  0  0  0  0  0  0  0  0  0
    6.3750    6.8630   17.4470 C   0  0  0  0  0  0  0  0  0  0  0  0
    6.4880    5.6210   18.0980 C   0  0  0  0  0  0  0  0  0  0  0  0
    5.3410    4.8780   18.4270 C   0  0  0  0  0  0  0  0  0  0  0  0
    2.9710    6.9990   17.2310 H   0  0  0  0  0  0  0  0  0  0  0  0
    4.9620    8.3040   16.6580 H   0  0  0  0  0  0  0  0  0  0  0  0
    5.4470    3.9370   18.9640 H   0  0  0  0  0  0  0  0  0  0  0  0
    1.4090    3.5770   20.1770 C   0  0  0  0  0  0  0  0  0  0  0  0
    0.5680    3.0940   19.1760 C   0  0  0  0  0  0  0  0  0  0  0  0
    0.8620    3.3470   17.8350 C   0  0  0  0  0  0  0  0  0  0  0  0
    1.9970    4.0820   17.4900 C   0  0  0  0  0  0  0  0  0  0  0  0
    2.8590    4.5790   18.4790 C   0  0  0  0  0  0  0  0  0  0  0  0
    2.5430    4.3150   19.8220 C   0  0  0  0  0  0  0  0  0  0  0  0
   -0.3250    2.5200   19.4050 H   0  0  0  0  0  0  0  0  0  0  0  0
    0.2020    2.9720   17.0570 H   0  0  0  0  0  0  0  0  0  0  0  0
    2.1990    4.2750   16.4390 H   0  0  0  0  0  0  0  0  0  0  0  0
    3.1970    4.6780   20.6150 H   0  0  0  0  0  0  0  0  0  0  0  0
    1.2410    3.4020   21.5230 O   0  0  0  0  0  0  0  0  0  0  0  0
    1.7600    2.2040   22.0870 C   0  0  0  0  0  0  0  0  0  0  0  0
    0.9710    1.4600   22.2320 H   0  0  0  0  0  0  0  0  0  0  0  0
    2.2920    2.4060   23.0230 H   0  0  0  0  0  0  0  0  0  0  0  0
    2.4830    1.7870   21.3780 H   0  0  0  0  0  0  0  0  0  0  0  0
    7.8100    5.0790   18.5020 C   0  0  0  0  0  0  0  0  0  0  0  0
    8.3220    4.0910   17.7100 N   0  0  0  0  0  0  0  0  0  0  0  0
    8.4100    5.4990   19.4820 O   0  0  0  0  0  0  0  0  0  0  0  0
    9.2640    3.7800   17.9100 H   0  0  0  0  0  0  0  0  0  0  0  0
    7.9270    3.8610   16.8080 H   0  0  0  0  0  0  0  0  0  0  0  0
    7.5720    7.6900   17.0410 C   0  0  0  0  0  0  0  0  0  0  0  0
    8.1950    7.1300   16.3340 H   0  0  0  0  0  0  0  0  0  0  0  0
    7.2550    8.6010   16.5200 H   0  0  0  0  0  0  0  0  0  0  0  0
    8.3800    8.0550   18.1780 N   0  0  0  0  0  0  0  0  0  0  0  0
    8.3910    9.3650   18.5930 C   0  0  0  0  0  0  0  0  0  0  0  0
    7.6210   10.2130   18.1650 O   0  0  0  0  0  0  0  0  0  0  0  0
    9.3430    9.5650   19.5560 N   0  0  0  0  0  0  0  0  0  0  0  0
    9.2970    7.6200   18.1720 H   0  0  0  0  0  0  0  0  0  0  0  0
   10.0130    8.8230   19.6710 H   0  0  0  0  0  0  0  0  0  0  0  0
    9.7140   10.8540   20.0950 C   0  0  2  0  0  0  0  0  0  0  0  0
    8.9030   11.3520   21.3060 C   0  0  0  0  0  0  0  0  0  0  0  0
    9.0250   12.8840   21.2920 C   0  0  0  0  0  0  0  0  0  0  0  0
    9.2080   13.1650   19.8320 C   0  0  0  0  0  0  0  0  0  0  0  0
    9.0800   14.3800   19.1800 C   0  0  0  0  0  0  0  0  0  0  0  0
    9.3300   14.4250   17.8070 C   0  0  0  0  0  0  0  0  0  0  0  0
    9.7130   13.2660   17.1110 C   0  0  0  0  0  0  0  0  0  0  0  0
    9.8530   12.0480   17.7800 C   0  0  0  0  0  0  0  0  0  0  0  0
    9.5920   12.0090   19.1420 C   0  0  0  0  0  0  0  0  0  0  0  0
   10.7690   10.7730   20.3870 H   0  0  0  0  0  0  0  0  0  0  0  0
    9.2610   10.9190   22.2460 H   0  0  0  0  0  0  0  0  0  0  0  0
    7.8420   11.0840   21.2280 H   0  0  0  0  0  0  0  0  0  0  0  0
    8.1270   13.3580   21.6990 H   0  0  0  0  0  0  0  0  0  0  0  0
    9.9070   13.2140   21.8520 H   0  0  0  0  0  0  0  0  0  0  0  0
    8.7880   15.2770   19.7170 H   0  0  0  0  0  0  0  0  0  0  0  0
    9.2280   15.3640   17.2690 H   0  0  0  0  0  0  0  0  0  0  0  0
    9.9020   13.3180   16.0420 H   0  0  0  0  0  0  0  0  0  0  0  0
   10.1510   11.1550   17.2410 H   0  0  0  0  0  0  0  0  0  0  0  0
  1  6  1  0  0  0  0
  1 14  1  0  0  0  0
  2  1  2  0  0  0  0
  3  4  2  0  0  0  0
  3  2  1  0  0  0  0
  4  5  1  0  0  0  0
  5  6  2  0  0  0  0
  5 25  1  0  0  0  0
  6  9  1  0  0  0  0
  7  2  1  0  0  0  0
  8  3  1  0  0  0  0
 10 20  1  0  0  0  0
 11 16  1  0  0  0  0
 11 10  2  0  0  0  0
 12 11  1  0  0  0  0
 13 12  2  0  0  0  0
 13 14  1  0  0  0  0
 14 15  2  0  0  0  0
 15 10  1  0  0  0  0
 15 19  1  0  0  0  0
 17 12  1  0  0  0  0
 18 13  1  0  0  0  0
 20 21  1  0  0  0  0
 21 22  1  0  0  0  0
 21 23  1  0  0  0  0
 24 21  1  0  0  0  0
 25 27  2  0  0  0  0
 26 28  1  0  0  0  0
 26 25  1  0  0  0  0
 29 26  1  0  0  0  0
 30  4  1  0  0  0  0
 30 33  1  0  0  0  0
 31 30  1  0  0  0  0
 32 30  1  0  0  0  0
 33 34  1  0  0  0  0
 34 36  1  0  0  0  0
 35 34  2  0  0  0  0
 36 38  1  0  0  0  0
 36 39  1  0  0  0  0
 37 33  1  0  0  0  0
 39 48  1  1  0  0  0
 39 40  1  0  0  0  0
 40 49  1  0  0  0  0
 41 40  1  0  0  0  0
 41 51  1  0  0  0  0
 41 52  1  0  0  0  0
 42 41  1  0  0  0  0
 43 53  1  0  0  0  0
 43 42  1  0  0  0  0
 44 43  2  0  0  0  0
 45 46  2  0  0  0  0
 45 44  1  0  0  0  0
 46 47  1  0  0  0  0
 47 42  2  0  0  0  0
 47 39  1  0  0  0  0
 50 40  1  0  0  0  0
 54 44  1  0  0  0  0
 55 45  1  0  0  0  0
 56 46  1  0  0  0  0
M  END
>  <MODEL>
17

>  <REMARK>
 VINA RESULT:    -7.093      5.635      8.003
 INTER + INTRA:         -10.485
 INTER:                 -10.727
 INTRA:                   0.243
 UNBOUND:                -0.696
  Name = 
  7 active torsions:
  status: ('A' for Active; 'I' for Inactive)
    1  A    between atoms: C_1  and  O_2
    2  A    between atoms: O_2  and  C_3
    3  A    between atoms: C_7  and  C_8
    4  A    between atoms: C_11  and  C_12
    5  A    between atoms: C_12  and  N_13
    6  A    between atoms: N_16  and  C_17
    7  A    between atoms: C_26  and  C_27
                            x       y       z     vdW  Elec       q    Type
                         _______ _______ _______ _____ _____    ______ ____

>  <TORSDO>
F 7

$$$$
=
 OpenBabel07192307433D

 56 59  0  0  1  0  0  0  0  0999 V2000
    1.4940    6.9680   19.8720 C   0  0  0  0  0  0  0  0  0  0  0  0
    1.7920    6.6890   18.5320 C   0  0  0  0  0  0  0  0  0  0  0  0
    2.0070    5.3770   18.0940 C   0  0  0  0  0  0  0  0  0  0  0  0
    1.9280    4.2970   18.9860 C   0  0  0  0  0  0  0  0  0  0  0  0
    1.6390    4.5710   20.3360 C   0  0  0  0  0  0  0  0  0  0  0  0
    1.4230    5.8910   20.7680 C   0  0  0  0  0  0  0  0  0  0  0  0
    1.8570    7.4990   17.8070 H   0  0  0  0  0  0  0  0  0  0  0  0
    2.2400    5.2050   17.0440 H   0  0  0  0  0  0  0  0  0  0  0  0
    1.2390    6.0870   21.8230 H   0  0  0  0  0  0  0  0  0  0  0  0
    1.0050   10.7300   19.8350 C   0  0  0  0  0  0  0  0  0  0  0  0
    0.8740   11.0000   21.1960 C   0  0  0  0  0  0  0  0  0  0  0  0
    0.9440    9.9590   22.1240 C   0  0  0  0  0  0  0  0  0  0  0  0
    1.1460    8.6460   21.6950 C   0  0  0  0  0  0  0  0  0  0  0  0
    1.2800    8.3490   20.3300 C   0  0  0  0  0  0  0  0  0  0  0  0
    1.2050    9.4100   19.4140 C   0  0  0  0  0  0  0  0  0  0  0  0
    0.7150   12.0070   21.5670 H   0  0  0  0  0  0  0  0  0  0  0  0
    0.8370   10.1720   23.1840 H   0  0  0  0  0  0  0  0  0  0  0  0
    1.1860    7.8510   22.4360 H   0  0  0  0  0  0  0  0  0  0  0  0
    1.3150    9.2160   18.3470 H   0  0  0  0  0  0  0  0  0  0  0  0
    0.9590   11.6500   18.8240 O   0  0  0  0  0  0  0  0  0  0  0  0
    2.2040   12.1110   18.3150 C   0  0  0  0  0  0  0  0  0  0  0  0
    2.0630   12.7270   17.4210 H   0  0  0  0  0  0  0  0  0  0  0  0
    2.8840   11.2750   18.1170 H   0  0  0  0  0  0  0  0  0  0  0  0
    2.6660   12.7400   19.0820 H   0  0  0  0  0  0  0  0  0  0  0  0
    1.6030    3.4890   21.3520 C   0  0  0  0  0  0  0  0  0  0  0  0
    2.6280    3.4770   22.2540 N   0  0  0  0  0  0  0  0  0  0  0  0
    0.7020    2.6610   21.3850 O   0  0  0  0  0  0  0  0  0  0  0  0
    2.5680    2.8100   23.0140 H   0  0  0  0  0  0  0  0  0  0  0  0
    3.2740    4.2480   22.3490 H   0  0  0  0  0  0  0  0  0  0  0  0
    2.1380    2.8980   18.4590 C   0  0  0  0  0  0  0  0  0  0  0  0
    2.6480    2.2830   19.2100 H   0  0  0  0  0  0  0  0  0  0  0  0
    1.1760    2.4090   18.2620 H   0  0  0  0  0  0  0  0  0  0  0  0
    2.9230    2.8930   17.2500 N   0  0  0  0  0  0  0  0  0  0  0  0
    4.2550    3.2270   17.3200 C   0  0  0  0  0  0  0  0  0  0  0  0
    4.8600    3.3620   18.3740 O   0  0  0  0  0  0  0  0  0  0  0  0
    4.7950    3.3500   16.0680 N   0  0  0  0  0  0  0  0  0  0  0  0
    2.4390    3.3040   16.4590 H   0  0  0  0  0  0  0  0  0  0  0  0
    4.1350    3.3890   15.3090 H   0  0  0  0  0  0  0  0  0  0  0  0
    6.1270    3.8350   15.7880 C   0  0  2  0  0  0  0  0  0  0  0  0
    6.4870    5.2210   16.3560 C   0  0  0  0  0  0  0  0  0  0  0  0
    7.6110    5.7630   15.4590 C   0  0  0  0  0  0  0  0  0  0  0  0
    7.3130    5.0940   14.1520 C   0  0  0  0  0  0  0  0  0  0  0  0
    7.8060    5.4200   12.9000 C   0  0  0  0  0  0  0  0  0  0  0  0
    7.4200    4.6360   11.8110 C   0  0  0  0  0  0  0  0  0  0  0  0
    6.5620    3.5380   11.9870 C   0  0  0  0  0  0  0  0  0  0  0  0
    6.0800    3.2090   13.2560 C   0  0  0  0  0  0  0  0  0  0  0  0
    6.4580    3.9990   14.3320 C   0  0  0  0  0  0  0  0  0  0  0  0
    6.8190    3.0920   16.2060 H   0  0  0  0  0  0  0  0  0  0  0  0
    6.7890    5.1680   17.4070 H   0  0  0  0  0  0  0  0  0  0  0  0
    5.6390    5.9150   16.3130 H   0  0  0  0  0  0  0  0  0  0  0  0
    7.5720    6.8540   15.3870 H   0  0  0  0  0  0  0  0  0  0  0  0
    8.5940    5.4490   15.8260 H   0  0  0  0  0  0  0  0  0  0  0  0
    8.4730    6.2660   12.7630 H   0  0  0  0  0  0  0  0  0  0  0  0
    7.7850    4.8770   10.8160 H   0  0  0  0  0  0  0  0  0  0  0  0
    6.2690    2.9410   11.1290 H   0  0  0  0  0  0  0  0  0  0  0  0
    5.4190    2.3590   13.3910 H   0  0  0  0  0  0  0  0  0  0  0  0
  1 14  1  0  0  0  0
  1  6  1  0  0  0  0
  2  1  2  0  0  0  0
  3  2  1  0  0  0  0
  3  4  2  0  0  0  0
  4  5  1  0  0  0  0
  5  6  2  0  0  0  0
  5 25  1  0  0  0  0
  6  9  1  0  0  0  0
  7  2  1  0  0  0  0
  8  3  1  0  0  0  0
 10 11  1  0  0  0  0
 11 16  1  0  0  0  0
 11 12  2  0  0  0  0
 12 17  1  0  0  0  0
 13 12  1  0  0  0  0
 13 18  1  0  0  0  0
 14 13  2  0  0  0  0
 15 10  2  0  0  0  0
 15 14  1  0  0  0  0
 19 15  1  0  0  0  0
 20 10  1  0  0  0  0
 21 20  1  0  0  0  0
 21 24  1  0  0  0  0
 22 21  1  0  0  0  0
 23 21  1  0  0  0  0
 25 27  2  0  0  0  0
 25 26  1  0  0  0  0
 26 29  1  0  0  0  0
 26 28  1  0  0  0  0
 30  4  1  0  0  0  0
 30 31  1  0  0  0  0
 32 30  1  0  0  0  0
 33 34  1  0  0  0  0
 33 30  1  0  0  0  0
 34 35  2  0  0  0  0
 36 34  1  0  0  0  0
 37 33  1  0  0  0  0
 38 36  1  0  0  0  0
 39 36  1  0  0  0  0
 39 48  1  1  0  0  0
 39 40  1  0  0  0  0
 40 49  1  0  0  0  0
 41 52  1  0  0  0  0
 41 40  1  0  0  0  0
 42 47  1  0  0  0  0
 42 41  1  0  0  0  0
 43 42  2  0  0  0  0
 44 45  2  0  0  0  0
 44 43  1  0  0  0  0
 45 46  1  0  0  0  0
 46 56  1  0  0  0  0
 46 47  2  0  0  0  0
 47 39  1  0  0  0  0
 50 40  1  0  0  0  0
 51 41  1  0  0  0  0
 53 43  1  0  0  0  0
 54 44  1  0  0  0  0
 55 45  1  0  0  0  0
M  END
>  <MODEL>
18

>  <REMARK>
 VINA RESULT:    -6.990      2.127      8.905
 INTER + INTRA:         -10.342
 INTER:                  -9.953
 INTRA:                  -0.388
 UNBOUND:                -0.696
  Name = 
  7 active torsions:
  status: ('A' for Active; 'I' for Inactive)
    1  A    between atoms: C_1  and  O_2
    2  A    between atoms: O_2  and  C_3
    3  A    between atoms: C_7  and  C_8
    4  A    between atoms: C_11  and  C_12
    5  A    between atoms: C_12  and  N_13
    6  A    between atoms: N_16  and  C_17
    7  A    between atoms: C_26  and  C_27
                            x       y       z     vdW  Elec       q    Type
                         _______ _______ _______ _____ _____    ______ ____

>  <TORSDO>
F 7

$$$$
=
 OpenBabel07192307433D

 56 59  0  0  1  0  0  0  0  0999 V2000
   -0.7750   11.7600   22.2710 C   0  0  0  0  0  0  0  0  0  0  0  0
   -0.4790   10.5850   22.9750 C   0  0  0  0  0  0  0  0  0  0  0  0
    0.2160    9.5320   22.3700 C   0  0  0  0  0  0  0  0  0  0  0  0
    0.6410    9.6210   21.0360 C   0  0  0  0  0  0  0  0  0  0  0  0
    0.3380   10.7940   20.3190 C   0  0  0  0  0  0  0  0  0  0  0  0
   -0.3590   11.8480   20.9340 C   0  0  0  0  0  0  0  0  0  0  0  0
   -0.7860   10.4800   24.0150 H   0  0  0  0  0  0  0  0  0  0  0  0
    0.4220    8.6350   22.9530 H   0  0  0  0  0  0  0  0  0  0  0  0
   -0.6180   12.7310   20.3530 H   0  0  0  0  0  0  0  0  0  0  0  0
   -3.5800   13.7450   23.8800 C   0  0  0  0  0  0  0  0  0  0  0  0
   -2.9460   14.9620   24.1230 C   0  0  0  0  0  0  0  0  0  0  0  0
   -1.6080   15.1360   23.7640 C   0  0  0  0  0  0  0  0  0  0  0  0
   -0.9000   14.0950   23.1610 C   0  0  0  0  0  0  0  0  0  0  0  0
   -1.5150   12.8610   22.9070 C   0  0  0  0  0  0  0  0  0  0  0  0
   -2.8610   12.7060   23.2770 C   0  0  0  0  0  0  0  0  0  0  0  0
   -3.4630   15.7940   24.5910 H   0  0  0  0  0  0  0  0  0  0  0  0
   -1.1150   16.0850   23.9580 H   0  0  0  0  0  0  0  0  0  0  0  0
    0.1440   14.2510   22.9010 H   0  0  0  0  0  0  0  0  0  0  0  0
   -3.3730   11.7630   23.0850 H   0  0  0  0  0  0  0  0  0  0  0  0
   -4.8800   13.4410   24.1780 O   0  0  0  0  0  0  0  0  0  0  0  0
   -5.1420   12.1240   24.6470 C   0  0  0  0  0  0  0  0  0  0  0  0
   -5.1040   12.0790   25.7400 H   0  0  0  0  0  0  0  0  0  0  0  0
   -4.4540   11.4000   24.1960 H   0  0  0  0  0  0  0  0  0  0  0  0
   -6.1560   11.8550   24.3390 H   0  0  0  0  0  0  0  0  0  0  0  0
    0.6970   10.9360   18.8850 C   0  0  0  0  0  0  0  0  0  0  0  0
   -0.3070   10.7050   17.9890 N   0  0  0  0  0  0  0  0  0  0  0  0
    1.8240   11.2520   18.5280 O   0  0  0  0  0  0  0  0  0  0  0  0
   -0.1100   10.8940   17.0140 H   0  0  0  0  0  0  0  0  0  0  0  0
   -1.2740   10.6190   18.2700 H   0  0  0  0  0  0  0  0  0  0  0  0
    1.4140    8.4700   20.4380 C   0  0  0  0  0  0  0  0  0  0  0  0
    1.4450    8.5620   19.3450 H   0  0  0  0  0  0  0  0  0  0  0  0
    2.4570    8.4850   20.7780 H   0  0  0  0  0  0  0  0  0  0  0  0
    0.8270    7.1980   20.7760 N   0  0  0  0  0  0  0  0  0  0  0  0
    1.5900    6.0610   20.6620 C   0  0  0  0  0  0  0  0  0  0  0  0
    2.7950    6.0770   20.4550 O   0  0  0  0  0  0  0  0  0  0  0  0
    0.8270    4.9390   20.8430 N   0  0  0  0  0  0  0  0  0  0  0  0
   -0.1220    7.0910   20.4280 H   0  0  0  0  0  0  0  0  0  0  0  0
   -0.1700    5.0790   20.8220 H   0  0  0  0  0  0  0  0  0  0  0  0
    1.2890    3.5840   20.6410 C   0  0  2  0  0  0  0  0  0  0  0  0
    2.3060    3.0460   21.6650 C   0  0  0  0  0  0  0  0  0  0  0  0
    3.0800    1.9320   20.9410 C   0  0  0  0  0  0  0  0  0  0  0  0
    3.0080    2.3830   19.5150 C   0  0  0  0  0  0  0  0  0  0  0  0
    3.7700    1.9410   18.4460 C   0  0  0  0  0  0  0  0  0  0  0  0
    3.5130    2.4770   17.1820 C   0  0  0  0  0  0  0  0  0  0  0  0
    2.4980    3.4310   17.0030 C   0  0  0  0  0  0  0  0  0  0  0  0
    1.7260    3.8610   18.0840 C   0  0  0  0  0  0  0  0  0  0  0  0
    1.9950    3.3330   19.3390 C   0  0  0  0  0  0  0  0  0  0  0  0
    0.3950    2.9480   20.6630 H   0  0  0  0  0  0  0  0  0  0  0  0
    1.8180    2.6830   22.5760 H   0  0  0  0  0  0  0  0  0  0  0  0
    3.0170    3.8170   21.9820 H   0  0  0  0  0  0  0  0  0  0  0  0
    4.1090    1.8620   21.3050 H   0  0  0  0  0  0  0  0  0  0  0  0
    2.5780    0.9660   21.0550 H   0  0  0  0  0  0  0  0  0  0  0  0
    4.5510    1.2000   18.5830 H   0  0  0  0  0  0  0  0  0  0  0  0
    4.1030    2.1540   16.3290 H   0  0  0  0  0  0  0  0  0  0  0  0
    2.3130    3.8400   16.0130 H   0  0  0  0  0  0  0  0  0  0  0  0
    0.9410    4.5970   17.9420 H   0  0  0  0  0  0  0  0  0  0  0  0
  1 14  1  0  0  0  0
  1  2  1  0  0  0  0
  2  7  1  0  0  0  0
  3  8  1  0  0  0  0
  3  2  2  0  0  0  0
  4  3  1  0  0  0  0
  5  6  1  0  0  0  0
  5  4  2  0  0  0  0
  6  1  2  0  0  0  0
  9  6  1  0  0  0  0
 10 11  1  0  0  0  0
 10 20  1  0  0  0  0
 11 16  1  0  0  0  0
 12 17  1  0  0  0  0
 12 11  2  0  0  0  0
 13 12  1  0  0  0  0
 14 13  2  0  0  0  0
 14 15  1  0  0  0  0
 15 10  2  0  0  0  0
 18 13  1  0  0  0  0
 19 15  1  0  0  0  0
 20 21  1  0  0  0  0
 21 22  1  0  0  0  0
 23 21  1  0  0  0  0
 24 21  1  0  0  0  0
 25  5  1  0  0  0  0
 26 29  1  0  0  0  0
 26 25  1  0  0  0  0
 27 25  2  0  0  0  0
 28 26  1  0  0  0  0
 30 33  1  0  0  0  0
 30 32  1  0  0  0  0
 30  4  1  0  0  0  0
 31 30  1  0  0  0  0
 34 33  1  0  0  0  0
 34 36  1  0  0  0  0
 35 34  2  0  0  0  0
 37 33  1  0  0  0  0
 38 36  1  0  0  0  0
 39 48  1  1  0  0  0
 39 36  1  0  0  0  0
 39 40  1  0  0  0  0
 40 50  1  0  0  0  0
 40 49  1  0  0  0  0
 41 52  1  0  0  0  0
 41 51  1  0  0  0  0
 41 40  1  0  0  0  0
 42 41  1  0  0  0  0
 43 53  1  0  0  0  0
 43 42  2  0  0  0  0
 44 43  1  0  0  0  0
 45 44  2  0  0  0  0
 45 46  1  0  0  0  0
 46 47  2  0  0  0  0
 47 42  1  0  0  0  0
 47 39  1  0  0  0  0
 54 44  1  0  0  0  0
 55 45  1  0  0  0  0
 56 46  1  0  0  0  0
M  END
>  <MODEL>
19

>  <REMARK>
 VINA RESULT:    -6.928      3.573     10.977
 INTER + INTRA:         -10.257
 INTER:                  -9.723
 INTRA:                  -0.534
 UNBOUND:                -0.696
  Name = 
  7 active torsions:
  status: ('A' for Active; 'I' for Inactive)
    1  A    between atoms: C_1  and  O_2
    2  A    between atoms: O_2  and  C_3
    3  A    between atoms: C_7  and  C_8
    4  A    between atoms: C_11  and  C_12
    5  A    between atoms: C_12  and  N_13
    6  A    between atoms: N_16  and  C_17
    7  A    between atoms: C_26  and  C_27
                            x       y       z     vdW  Elec       q    Type
                         _______ _______ _______ _____ _____    ______ ____

>  <TORSDO>
F 7

$$$$
=
 OpenBabel07192307433D

 56 59  0  0  1  0  0  0  0  0999 V2000
    2.7730    6.5000   18.7290 C   0  0  0  0  0  0  0  0  0  0  0  0
    2.5340    6.2300   20.0830 C   0  0  0  0  0  0  0  0  0  0  0  0
    1.8910    7.1610   20.9060 C   0  0  0  0  0  0  0  0  0  0  0  0
    1.4620    8.3970   20.4000 C   0  0  0  0  0  0  0  0  0  0  0  0
    1.7080    8.6800   19.0430 C   0  0  0  0  0  0  0  0  0  0  0  0
    2.3530    7.7390   18.2210 C   0  0  0  0  0  0  0  0  0  0  0  0
    2.8460    5.2790   20.5130 H   0  0  0  0  0  0  0  0  0  0  0  0
    1.7290    6.9120   21.9550 H   0  0  0  0  0  0  0  0  0  0  0  0
    2.5690    7.9910   17.1850 H   0  0  0  0  0  0  0  0  0  0  0  0
    5.2370    4.9790   16.2770 C   0  0  0  0  0  0  0  0  0  0  0  0
    4.7800    3.6640   16.2150 C   0  0  0  0  0  0  0  0  0  0  0  0
    3.6730    3.2720   16.9710 C   0  0  0  0  0  0  0  0  0  0  0  0
    3.0190    4.1940   17.7890 C   0  0  0  0  0  0  0  0  0  0  0  0
    3.4590    5.5240   17.8690 C   0  0  0  0  0  0  0  0  0  0  0  0
    4.5750    5.8960   17.1020 C   0  0  0  0  0  0  0  0  0  0  0  0
    5.2630    2.9180   15.5920 H   0  0  0  0  0  0  0  0  0  0  0  0
    3.3220    2.2450   16.9250 H   0  0  0  0  0  0  0  0  0  0  0  0
    2.1660    3.8630   18.3770 H   0  0  0  0  0  0  0  0  0  0  0  0
    4.9380    6.9230   17.1330 H   0  0  0  0  0  0  0  0  0  0  0  0
    6.3020    5.4940   15.5920 O   0  0  0  0  0  0  0  0  0  0  0  0
    6.7580    4.7600   14.4620 C   0  0  0  0  0  0  0  0  0  0  0  0
    5.9280    4.5000   13.7980 H   0  0  0  0  0  0  0  0  0  0  0  0
    7.3140    3.8670   14.7700 H   0  0  0  0  0  0  0  0  0  0  0  0
    7.4430    5.4010   13.9010 H   0  0  0  0  0  0  0  0  0  0  0  0
    1.3430    9.9910   18.4490 C   0  0  0  0  0  0  0  0  0  0  0  0
    0.2300   10.0030   17.6580 N   0  0  0  0  0  0  0  0  0  0  0  0
    1.9960   11.0030   18.6640 O   0  0  0  0  0  0  0  0  0  0  0  0
   -0.0920   10.9030   17.3270 H   0  0  0  0  0  0  0  0  0  0  0  0
   -0.4130    9.2230   17.6160 H   0  0  0  0  0  0  0  0  0  0  0  0
    0.7460    9.3550   21.3210 C   0  0  0  0  0  0  0  0  0  0  0  0
    0.4150    8.8330   22.2260 H   0  0  0  0  0  0  0  0  0  0  0  0
    1.4230   10.1520   21.6540 H   0  0  0  0  0  0  0  0  0  0  0  0
   -0.4030    9.9500   20.6860 N   0  0  0  0  0  0  0  0  0  0  0  0
   -0.7040   11.2650   20.9500 C   0  0  0  0  0  0  0  0  0  0  0  0
    0.0430   12.0170   21.5590 O   0  0  0  0  0  0  0  0  0  0  0  0
   -1.9170   11.6060   20.4150 N   0  0  0  0  0  0  0  0  0  0  0  0
   -1.2140    9.3380   20.6750 H   0  0  0  0  0  0  0  0  0  0  0  0
   -2.4910   10.8390   20.1060 H   0  0  0  0  0  0  0  0  0  0  0  0
   -2.5930   12.8640   20.6380 C   0  0  2  0  0  0  0  0  0  0  0  0
   -1.8180   14.1380   20.2520 C   0  0  0  0  0  0  0  0  0  0  0  0
   -2.4110   15.2670   21.1100 C   0  0  0  0  0  0  0  0  0  0  0  0
   -2.8730   14.5210   22.3240 C   0  0  0  0  0  0  0  0  0  0  0  0
   -3.2200   15.0430   23.5600 C   0  0  0  0  0  0  0  0  0  0  0  0
   -3.6590   14.1630   24.5510 C   0  0  0  0  0  0  0  0  0  0  0  0
   -3.7550   12.7860   24.2940 C   0  0  0  0  0  0  0  0  0  0  0  0
   -3.4150   12.2700   23.0420 C   0  0  0  0  0  0  0  0  0  0  0  0
   -2.9690   13.1480   22.0650 C   0  0  0  0  0  0  0  0  0  0  0  0
   -3.5190   12.8230   20.0510 H   0  0  0  0  0  0  0  0  0  0  0  0
   -1.8900   14.3540   19.1810 H   0  0  0  0  0  0  0  0  0  0  0  0
   -0.7480   14.0520   20.4770 H   0  0  0  0  0  0  0  0  0  0  0  0
   -1.6590   16.0240   21.3470 H   0  0  0  0  0  0  0  0  0  0  0  0
   -3.2660   15.7340   20.6090 H   0  0  0  0  0  0  0  0  0  0  0  0
   -3.1510   16.1080   23.7570 H   0  0  0  0  0  0  0  0  0  0  0  0
   -3.9290   14.5460   25.5320 H   0  0  0  0  0  0  0  0  0  0  0  0
   -4.0950   12.1150   25.0780 H   0  0  0  0  0  0  0  0  0  0  0  0
   -3.4920   11.2050   22.8450 H   0  0  0  0  0  0  0  0  0  0  0  0
  1  2  1  0  0  0  0
  2  7  1  0  0  0  0
  2  3  2  0  0  0  0
  3  8  1  0  0  0  0
  4  3  1  0  0  0  0
  4 30  1  0  0  0  0
  5  4  2  0  0  0  0
  6  1  2  0  0  0  0
  6  5  1  0  0  0  0
  9  6  1  0  0  0  0
 10 15  1  0  0  0  0
 11 10  2  0  0  0  0
 11 12  1  0  0  0  0
 12 13  2  0  0  0  0
 13 14  1  0  0  0  0
 13 18  1  0  0  0  0
 14  1  1  0  0  0  0
 15 19  1  0  0  0  0
 15 14  2  0  0  0  0
 16 11  1  0  0  0  0
 17 12  1  0  0  0  0
 20 10  1  0  0  0  0
 21 23  1  0  0  0  0
 21 20  1  0  0  0  0
 22 21  1  0  0  0  0
 24 21  1  0  0  0  0
 25 27  2  0  0  0  0
 25  5  1  0  0  0  0
 26 25  1  0  0  0  0
 28 26  1  0  0  0  0
 29 26  1  0  0  0  0
 30 32  1  0  0  0  0
 30 31  1  0  0  0  0
 33 34  1  0  0  0  0
 33 30  1  0  0  0  0
 34 35  2  0  0  0  0
 36 39  1  0  0  0  0
 36 34  1  0  0  0  0
 37 33  1  0  0  0  0
 38 36  1  0  0  0  0
 39 48  1  6  0  0  0
 39 47  1  0  0  0  0
 40 50  1  0  0  0  0
 40 39  1  0  0  0  0
 40 41  1  0  0  0  0
 41 51  1  0  0  0  0
 41 42  1  0  0  0  0
 42 43  1  0  0  0  0
 43 53  1  0  0  0  0
 43 44  2  0  0  0  0
 44 54  1  0  0  0  0
 45 44  1  0  0  0  0
 45 55  1  0  0  0  0
 46 45  2  0  0  0  0
 47 42  2  0  0  0  0
 47 46  1  0  0  0  0
 49 40  1  0  0  0  0
 52 41  1  0  0  0  0
 56 46  1  0  0  0  0
M  END
>  <MODEL>
20

>  <REMARK>
 VINA RESULT:    -6.899      3.099      5.379
 INTER + INTRA:         -10.217
 INTER:                 -10.118
 INTRA:                  -0.099
 UNBOUND:                -0.696
  Name = 
  7 active torsions:
  status: ('A' for Active; 'I' for Inactive)
    1  A    between atoms: C_1  and  O_2
    2  A    between atoms: O_2  and  C_3
    3  A    between atoms: C_7  and  C_8
    4  A    between atoms: C_11  and  C_12
    5  A    between atoms: C_12  and  N_13
    6  A    between atoms: N_16  and  C_17
    7  A    between atoms: C_26  and  C_27
                            x       y       z     vdW  Elec       q    Type
                         _______ _______ _______ _____ _____    ______ ____

>  <TORSDO>
F 7

$$$$
=
 OpenBabel07192307433D

 56 59  0  0  1  0  0  0  0  0999 V2000
    4.2980    4.5860   16.5190 C   0  0  0  0  0  0  0  0  0  0  0  0
    4.3100    5.7880   17.2390 C   0  0  0  0  0  0  0  0  0  0  0  0
    3.5260    5.9540   18.3870 C   0  0  0  0  0  0  0  0  0  0  0  0
    2.7030    4.9190   18.8540 C   0  0  0  0  0  0  0  0  0  0  0  0
    2.6780    3.7130   18.1290 C   0  0  0  0  0  0  0  0  0  0  0  0
    3.4690    3.5520   16.9790 C   0  0  0  0  0  0  0  0  0  0  0  0
    4.9410    6.6140   16.9120 H   0  0  0  0  0  0  0  0  0  0  0  0
    3.5630    6.9070   18.9140 H   0  0  0  0  0  0  0  0  0  0  0  0
    3.4080    2.6260   16.4100 H   0  0  0  0  0  0  0  0  0  0  0  0
    7.1390    4.9250   14.0270 C   0  0  0  0  0  0  0  0  0  0  0  0
    6.6890    4.1100   12.9900 C   0  0  0  0  0  0  0  0  0  0  0  0
    5.4630    3.4510   13.1020 C   0  0  0  0  0  0  0  0  0  0  0  0
    4.6840    3.6050   14.2500 C   0  0  0  0  0  0  0  0  0  0  0  0
    5.1150    4.4190   15.3070 C   0  0  0  0  0  0  0  0  0  0  0  0
    6.3520    5.0710   15.1750 C   0  0  0  0  0  0  0  0  0  0  0  0
    7.2670    3.9640   12.0830 H   0  0  0  0  0  0  0  0  0  0  0  0
    5.1160    2.8130   12.2940 H   0  0  0  0  0  0  0  0  0  0  0  0
    3.7380    3.0730   14.3190 H   0  0  0  0  0  0  0  0  0  0  0  0
    6.7130    5.7190   15.9730 H   0  0  0  0  0  0  0  0  0  0  0  0
    8.3130    5.6260   14.0470 O   0  0  0  0  0  0  0  0  0  0  0  0
    8.8610    6.0020   12.7900 C   0  0  0  0  0  0  0  0  0  0  0  0
    8.1860    5.7400   11.9700 H   0  0  0  0  0  0  0  0  0  0  0  0
    9.8530    5.5620   12.6440 H   0  0  0  0  0  0  0  0  0  0  0  0
    8.9770    7.0900   12.7880 H   0  0  0  0  0  0  0  0  0  0  0  0
    1.7840    2.5950   18.5230 C   0  0  0  0  0  0  0  0  0  0  0  0
    2.4010    1.4330   18.8890 N   0  0  0  0  0  0  0  0  0  0  0  0
    0.5660    2.7110   18.5280 O   0  0  0  0  0  0  0  0  0  0  0  0
    1.8140    0.6940   19.2560 H   0  0  0  0  0  0  0  0  0  0  0  0
    3.3960    1.3780   19.0590 H   0  0  0  0  0  0  0  0  0  0  0  0
    1.8990    5.1370   20.1130 C   0  0  0  0  0  0  0  0  0  0  0  0
    0.8320    5.2100   19.8730 H   0  0  0  0  0  0  0  0  0  0  0  0
    2.0050    4.2830   20.7930 H   0  0  0  0  0  0  0  0  0  0  0  0
    2.2990    6.3390   20.8010 N   0  0  0  0  0  0  0  0  0  0  0  0
    1.3380    7.2550   21.1560 C   0  0  0  0  0  0  0  0  0  0  0  0
    0.1380    7.0350   21.0780 O   0  0  0  0  0  0  0  0  0  0  0  0
    1.9080    8.4060   21.6290 N   0  0  0  0  0  0  0  0  0  0  0  0
    3.1410    6.7570   20.4170 H   0  0  0  0  0  0  0  0  0  0  0  0
    2.8960    8.5060   21.4620 H   0  0  0  0  0  0  0  0  0  0  0  0
    1.1850    9.6160   21.9450 C   0  0  2  0  0  0  0  0  0  0  0  0
    0.0790    9.4980   23.0110 C   0  0  0  0  0  0  0  0  0  0  0  0
   -0.9000   10.6480   22.7290 C   0  0  0  0  0  0  0  0  0  0  0  0
   -0.7380   10.8360   21.2520 C   0  0  0  0  0  0  0  0  0  0  0  0
   -1.5720   11.5270   20.3880 C   0  0  0  0  0  0  0  0  0  0  0  0
   -1.2110   11.6070   19.0420 C   0  0  0  0  0  0  0  0  0  0  0  0
   -0.0260   11.0100   18.5810 C   0  0  0  0  0  0  0  0  0  0  0  0
    0.8150   10.3270   19.4620 C   0  0  0  0  0  0  0  0  0  0  0  0
    0.4450   10.2410   20.7970 C   0  0  0  0  0  0  0  0  0  0  0  0
    1.9340   10.3400   22.2920 H   0  0  0  0  0  0  0  0  0  0  0  0
    0.4840    9.5410   24.0280 H   0  0  0  0  0  0  0  0  0  0  0  0
   -0.4630    8.5490   22.9360 H   0  0  0  0  0  0  0  0  0  0  0  0
   -1.9230   10.3760   23.0050 H   0  0  0  0  0  0  0  0  0  0  0  0
   -0.6020   11.5590   23.2590 H   0  0  0  0  0  0  0  0  0  0  0  0
   -2.4860   11.9930   20.7440 H   0  0  0  0  0  0  0  0  0  0  0  0
   -1.8530   12.1360   18.3410 H   0  0  0  0  0  0  0  0  0  0  0  0
    0.2380   11.0800   17.5300 H   0  0  0  0  0  0  0  0  0  0  0  0
    1.7310    9.8680   19.1050 H   0  0  0  0  0  0  0  0  0  0  0  0
  1  6  2  0  0  0  0
  1  2  1  0  0  0  0
  2  3  2  0  0  0  0
  3  4  1  0  0  0  0
  3  8  1  0  0  0  0
  4 30  1  0  0  0  0
  5 25  1  0  0  0  0
  5  4  2  0  0  0  0
  6  5  1  0  0  0  0
  7  2  1  0  0  0  0
  9  6  1  0  0  0  0
 10 20  1  0  0  0  0
 10 15  1  0  0  0  0
 11 12  1  0  0  0  0
 11 10  2  0  0  0  0
 12 13  2  0  0  0  0
 13 18  1  0  0  0  0
 13 14  1  0  0  0  0
 14  1  1  0  0  0  0
 15 14  2  0  0  0  0
 15 19  1  0  0  0  0
 16 11  1  0  0  0  0
 17 12  1  0  0  0  0
 21 20  1  0  0  0  0
 22 21  1  0  0  0  0
 23 21  1  0  0  0  0
 24 21  1  0  0  0  0
 25 27  2  0  0  0  0
 25 26  1  0  0  0  0
 26 29  1  0  0  0  0
 26 28  1  0  0  0  0
 30 32  1  0  0  0  0
 30 33  1  0  0  0  0
 31 30  1  0  0  0  0
 33 34  1  0  0  0  0
 34 36  1  0  0  0  0
 35 34  2  0  0  0  0
 36 39  1  0  0  0  0
 37 33  1  0  0  0  0
 38 36  1  0  0  0  0
 39 48  1  1  0  0  0
 39 40  1  0  0  0  0
 40 49  1  0  0  0  0
 41 51  1  0  0  0  0
 41 40  1  0  0  0  0
 41 52  1  0  0  0  0
 42 41  1  0  0  0  0
 43 53  1  0  0  0  0
 43 42  2  0  0  0  0
 44 43  1  0  0  0  0
 45 44  2  0  0  0  0
 45 46  1  0  0  0  0
 46 47  2  0  0  0  0
 47 42  1  0  0  0  0
 47 39  1  0  0  0  0
 50 40  1  0  0  0  0
 54 44  1  0  0  0  0
 55 45  1  0  0  0  0
 56 46  1  0  0  0  0
M  END
>  <MODEL>
21

>  <REMARK>
 VINA RESULT:    -6.888      1.524      2.592
 INTER + INTRA:         -10.201
 INTER:                  -9.606
 INTRA:                  -0.595
 UNBOUND:                -0.696
  Name = 
  7 active torsions:
  status: ('A' for Active; 'I' for Inactive)
    1  A    between atoms: C_1  and  O_2
    2  A    between atoms: O_2  and  C_3
    3  A    between atoms: C_7  and  C_8
    4  A    between atoms: C_11  and  C_12
    5  A    between atoms: C_12  and  N_13
    6  A    between atoms: N_16  and  C_17
    7  A    between atoms: C_26  and  C_27
                            x       y       z     vdW  Elec       q    Type
                         _______ _______ _______ _____ _____    ______ ____

>  <TORSDO>
F 7

$$$$
=
 OpenBabel07192307433D

 56 59  0  0  1  0  0  0  0  0999 V2000
    2.2740    6.7690   19.7450 C   0  0  0  0  0  0  0  0  0  0  0  0
    1.9130    7.0870   21.0620 C   0  0  0  0  0  0  0  0  0  0  0  0
    1.2360    8.2740   21.3620 C   0  0  0  0  0  0  0  0  0  0  0  0
    0.8950    9.1850   20.3510 C   0  0  0  0  0  0  0  0  0  0  0  0
    1.2640    8.8780   19.0280 C   0  0  0  0  0  0  0  0  0  0  0  0
    1.9420    7.6830   18.7340 C   0  0  0  0  0  0  0  0  0  0  0  0
    2.1550    6.4020   21.8740 H   0  0  0  0  0  0  0  0  0  0  0  0
    0.9770    8.4830   22.4000 H   0  0  0  0  0  0  0  0  0  0  0  0
    2.2540    7.4800   17.7100 H   0  0  0  0  0  0  0  0  0  0  0  0
    2.9800    3.1200   18.9840 C   0  0  0  0  0  0  0  0  0  0  0  0
    4.3660    3.1350   18.8440 C   0  0  0  0  0  0  0  0  0  0  0  0
    5.0700    4.3320   18.9960 C   0  0  0  0  0  0  0  0  0  0  0  0
    4.3910    5.5150   19.2900 C   0  0  0  0  0  0  0  0  0  0  0  0
    2.9960    5.5260   19.4350 C   0  0  0  0  0  0  0  0  0  0  0  0
    2.3070    4.3120   19.2760 C   0  0  0  0  0  0  0  0  0  0  0  0
    4.9290    2.2360   18.6150 H   0  0  0  0  0  0  0  0  0  0  0  0
    6.1510    4.3420   18.8820 H   0  0  0  0  0  0  0  0  0  0  0  0
    4.9600    6.4360   19.3920 H   0  0  0  0  0  0  0  0  0  0  0  0
    1.2240    4.2830   19.3920 H   0  0  0  0  0  0  0  0  0  0  0  0
    2.1710    2.0240   18.8640 O   0  0  0  0  0  0  0  0  0  0  0  0
    0.7710    2.2620   18.7910 C   0  0  0  0  0  0  0  0  0  0  0  0
    0.3420    1.8300   17.8820 H   0  0  0  0  0  0  0  0  0  0  0  0
    0.5480    3.3320   18.8650 H   0  0  0  0  0  0  0  0  0  0  0  0
    0.3030    1.7650   19.6470 H   0  0  0  0  0  0  0  0  0  0  0  0
    0.9960    9.8220   17.9140 C   0  0  0  0  0  0  0  0  0  0  0  0
    2.0690   10.5300   17.4550 N   0  0  0  0  0  0  0  0  0  0  0  0
   -0.1200    9.9500   17.4280 O   0  0  0  0  0  0  0  0  0  0  0  0
    1.9280   11.1030   16.6330 H   0  0  0  0  0  0  0  0  0  0  0  0
    3.0190   10.3080   17.7220 H   0  0  0  0  0  0  0  0  0  0  0  0
    0.1370   10.4370   20.7220 C   0  0  0  0  0  0  0  0  0  0  0  0
   -0.4280   10.8070   19.8590 H   0  0  0  0  0  0  0  0  0  0  0  0
   -0.6000   10.2260   21.5070 H   0  0  0  0  0  0  0  0  0  0  0  0
    1.0210   11.4830   21.1760 N   0  0  0  0  0  0  0  0  0  0  0  0
    1.3310   12.5110   20.3190 C   0  0  0  0  0  0  0  0  0  0  0  0
    0.7670   12.6890   19.2500 O   0  0  0  0  0  0  0  0  0  0  0  0
    2.3150   13.3050   20.8430 N   0  0  0  0  0  0  0  0  0  0  0  0
    1.8170   11.1320   21.7010 H   0  0  0  0  0  0  0  0  0  0  0  0
    2.8030   12.9290   21.6400 H   0  0  0  0  0  0  0  0  0  0  0  0
    2.9730   14.3800   20.1360 C   0  0  2  0  0  0  0  0  0  0  0  0
    2.9810   14.2860   18.5980 C   0  0  0  0  0  0  0  0  0  0  0  0
    4.1920   15.1120   18.1340 C   0  0  0  0  0  0  0  0  0  0  0  0
    5.1200   14.9810   19.3020 C   0  0  0  0  0  0  0  0  0  0  0  0
    6.4750   15.2650   19.3450 C   0  0  0  0  0  0  0  0  0  0  0  0
    7.1480   15.1030   20.5570 C   0  0  0  0  0  0  0  0  0  0  0  0
    6.4620   14.6730   21.7050 C   0  0  0  0  0  0  0  0  0  0  0  0
    5.0930   14.4020   21.6560 C   0  0  0  0  0  0  0  0  0  0  0  0
    4.4330   14.5540   20.4450 C   0  0  0  0  0  0  0  0  0  0  0  0
    2.4570   15.3030   20.4310 H   0  0  0  0  0  0  0  0  0  0  0  0
    2.0440   14.6470   18.1610 H   0  0  0  0  0  0  0  0  0  0  0  0
    3.1060   13.2540   18.2500 H   0  0  0  0  0  0  0  0  0  0  0  0
    4.6200   14.7060   17.2130 H   0  0  0  0  0  0  0  0  0  0  0  0
    3.9190   16.1620   17.9870 H   0  0  0  0  0  0  0  0  0  0  0  0
    7.0060   15.6020   18.4590 H   0  0  0  0  0  0  0  0  0  0  0  0
    8.2140   15.3100   20.6150 H   0  0  0  0  0  0  0  0  0  0  0  0
    7.0020   14.5490   22.6390 H   0  0  0  0  0  0  0  0  0  0  0  0
    4.5650   14.0720   22.5440 H   0  0  0  0  0  0  0  0  0  0  0  0
  1  2  1  0  0  0  0
  2  3  2  0  0  0  0
  2  7  1  0  0  0  0
  3  8  1  0  0  0  0
  4 30  1  0  0  0  0
  4  3  1  0  0  0  0
  5  4  2  0  0  0  0
  6  5  1  0  0  0  0
  6  1  2  0  0  0  0
  9  6  1  0  0  0  0
 10 15  1  0  0  0  0
 11 10  2  0  0  0  0
 11 12  1  0  0  0  0
 12 13  2  0  0  0  0
 13 18  1  0  0  0  0
 13 14  1  0  0  0  0
 14  1  1  0  0  0  0
 15 19  1  0  0  0  0
 15 14  2  0  0  0  0
 16 11  1  0  0  0  0
 17 12  1  0  0  0  0
 20 10  1  0  0  0  0
 21 20  1  0  0  0  0
 21 23  1  0  0  0  0
 21 24  1  0  0  0  0
 22 21  1  0  0  0  0
 25  5  1  0  0  0  0
 26 29  1  0  0  0  0
 26 25  1  0  0  0  0
 27 25  2  0  0  0  0
 28 26  1  0  0  0  0
 30 33  1  0  0  0  0
 30 32  1  0  0  0  0
 31 30  1  0  0  0  0
 33 37  1  0  0  0  0
 34 36  1  0  0  0  0
 34 33  1  0  0  0  0
 35 34  2  0  0  0  0
 36 38  1  0  0  0  0
 39 48  1  1  0  0  0
 39 47  1  0  0  0  0
 39 36  1  0  0  0  0
 40 39  1  0  0  0  0
 41 40  1  0  0  0  0
 41 42  1  0  0  0  0
 42 43  2  0  0  0  0
 42 47  1  0  0  0  0
 43 44  1  0  0  0  0
 44 54  1  0  0  0  0
 44 45  2  0  0  0  0
 45 55  1  0  0  0  0
 46 45  1  0  0  0  0
 46 56  1  0  0  0  0
 47 46  2  0  0  0  0
 49 40  1  0  0  0  0
 50 40  1  0  0  0  0
 51 41  1  0  0  0  0
 52 41  1  0  0  0  0
 53 43  1  0  0  0  0
M  END
>  <MODEL>
22

>  <REMARK>
 VINA RESULT:    -6.851      4.253      6.768
 INTER + INTRA:         -10.150
 INTER:                  -9.430
 INTRA:                  -0.720
 UNBOUND:                -0.696
  Name = 
  7 active torsions:
  status: ('A' for Active; 'I' for Inactive)
    1  A    between atoms: C_1  and  O_2
    2  A    between atoms: O_2  and  C_3
    3  A    between atoms: C_7  and  C_8
    4  A    between atoms: C_11  and  C_12
    5  A    between atoms: C_12  and  N_13
    6  A    between atoms: N_16  and  C_17
    7  A    between atoms: C_26  and  C_27
                            x       y       z     vdW  Elec       q    Type
                         _______ _______ _______ _____ _____    ______ ____

>  <TORSDO>
F 7

$$$$
=
 OpenBabel07192307433D

 56 59  0  0  1  0  0  0  0  0999 V2000
    1.8470    7.0780   20.2690 C   0  0  0  0  0  0  0  0  0  0  0  0
    1.5730    7.6480   21.5200 C   0  0  0  0  0  0  0  0  0  0  0  0
    1.0480    8.9400   21.6280 C   0  0  0  0  0  0  0  0  0  0  0  0
    0.7770    9.7070   20.4850 C   0  0  0  0  0  0  0  0  0  0  0  0
    1.0590    9.1450   19.2270 C   0  0  0  0  0  0  0  0  0  0  0  0
    1.5850    7.8460   19.1250 C   0  0  0  0  0  0  0  0  0  0  0  0
    1.7640    7.0820   22.4310 H   0  0  0  0  0  0  0  0  0  0  0  0
    0.8530    9.3460   22.6210 H   0  0  0  0  0  0  0  0  0  0  0  0
    1.8330    7.4430   18.1440 H   0  0  0  0  0  0  0  0  0  0  0  0
    4.1630    4.2120   19.3620 C   0  0  0  0  0  0  0  0  0  0  0  0
    3.4950    3.1320   19.9370 C   0  0  0  0  0  0  0  0  0  0  0  0
    2.2940    3.3360   20.6190 C   0  0  0  0  0  0  0  0  0  0  0  0
    1.7560    4.6200   20.7280 C   0  0  0  0  0  0  0  0  0  0  0  0
    2.4090    5.7230   20.1590 C   0  0  0  0  0  0  0  0  0  0  0  0
    3.6170    5.4960   19.4790 C   0  0  0  0  0  0  0  0  0  0  0  0
    3.8830    2.1200   19.8750 H   0  0  0  0  0  0  0  0  0  0  0  0
    1.7780    2.4930   21.0700 H   0  0  0  0  0  0  0  0  0  0  0  0
    0.8250    4.7550   21.2740 H   0  0  0  0  0  0  0  0  0  0  0  0
    4.1450    6.3290   19.0160 H   0  0  0  0  0  0  0  0  0  0  0  0
    5.3400    4.1540   18.6680 O   0  0  0  0  0  0  0  0  0  0  0  0
    6.1610    5.3150   18.6960 C   0  0  0  0  0  0  0  0  0  0  0  0
    7.2200    5.0530   18.6010 H   0  0  0  0  0  0  0  0  0  0  0  0
    5.9780    5.9060   19.6000 H   0  0  0  0  0  0  0  0  0  0  0  0
    5.8930    5.9340   17.8340 H   0  0  0  0  0  0  0  0  0  0  0  0
    0.8610    9.9180   17.9740 C   0  0  0  0  0  0  0  0  0  0  0  0
    1.9780   10.4940   17.4400 N   0  0  0  0  0  0  0  0  0  0  0  0
   -0.2390   10.0260   17.4470 O   0  0  0  0  0  0  0  0  0  0  0  0
    1.8810   10.9390   16.5360 H   0  0  0  0  0  0  0  0  0  0  0  0
    2.9090   10.2690   17.7620 H   0  0  0  0  0  0  0  0  0  0  0  0
    0.1820   11.0850   20.6550 C   0  0  0  0  0  0  0  0  0  0  0  0
   -0.2960   11.4080   19.7220 H   0  0  0  0  0  0  0  0  0  0  0  0
   -0.6060   11.0760   21.4180 H   0  0  0  0  0  0  0  0  0  0  0  0
    1.1810   12.0580   21.0210 N   0  0  0  0  0  0  0  0  0  0  0  0
    1.6160   12.9540   20.0750 C   0  0  0  0  0  0  0  0  0  0  0  0
    1.0830   13.0910   18.9830 O   0  0  0  0  0  0  0  0  0  0  0  0
    2.6850   13.6730   20.5370 N   0  0  0  0  0  0  0  0  0  0  0  0
    1.9260   11.6690   21.5910 H   0  0  0  0  0  0  0  0  0  0  0  0
    3.1200   13.3230   21.3740 H   0  0  0  0  0  0  0  0  0  0  0  0
    3.4710   14.5890   19.7410 C   0  0  2  0  0  0  0  0  0  0  0  0
    3.6520   14.2260   18.2550 C   0  0  0  0  0  0  0  0  0  0  0  0
    4.9450   14.9240   17.8060 C   0  0  0  0  0  0  0  0  0  0  0  0
    5.7260   14.9770   19.0840 C   0  0  0  0  0  0  0  0  0  0  0  0
    7.0780   15.2280   19.2420 C   0  0  0  0  0  0  0  0  0  0  0  0
    7.5990   15.2640   20.5380 C   0  0  0  0  0  0  0  0  0  0  0  0
    6.7650   15.0620   21.6500 C   0  0  0  0  0  0  0  0  0  0  0  0
    5.4000   14.8220   21.4810 C   0  0  0  0  0  0  0  0  0  0  0  0
    4.8910   14.7760   20.1910 C   0  0  0  0  0  0  0  0  0  0  0  0
    2.9680   15.5630   19.8070 H   0  0  0  0  0  0  0  0  0  0  0  0
    2.7900   14.5280   17.6500 H   0  0  0  0  0  0  0  0  0  0  0  0
    3.7670   13.1450   18.1070 H   0  0  0  0  0  0  0  0  0  0  0  0
    5.4580   14.3500   17.0280 H   0  0  0  0  0  0  0  0  0  0  0  0
    4.7420   15.9380   17.4490 H   0  0  0  0  0  0  0  0  0  0  0  0
    7.7230   15.3890   18.3840 H   0  0  0  0  0  0  0  0  0  0  0  0
    8.6590   15.4500   20.6890 H   0  0  0  0  0  0  0  0  0  0  0  0
    7.1870   15.0910   22.6500 H   0  0  0  0  0  0  0  0  0  0  0  0
    4.7570   14.6690   22.3420 H   0  0  0  0  0  0  0  0  0  0  0  0
  1  2  1  0  0  0  0
  2  3  2  0  0  0  0
  2  7  1  0  0  0  0
  3  8  1  0  0  0  0
  4 30  1  0  0  0  0
  4  3  1  0  0  0  0
  5  4  2  0  0  0  0
  6  5  1  0  0  0  0
  6  1  2  0  0  0  0
  9  6  1  0  0  0  0
 10 15  2  0  0  0  0
 10 11  1  0  0  0  0
 11 12  2  0  0  0  0
 12 13  1  0  0  0  0
 12 17  1  0  0  0  0
 13 18  1  0  0  0  0
 14  1  1  0  0  0  0
 14 13  2  0  0  0  0
 15 14  1  0  0  0  0
 16 11  1  0  0  0  0
 19 15  1  0  0  0  0
 20 21  1  0  0  0  0
 20 10  1  0  0  0  0
 21 23  1  0  0  0  0
 22 21  1  0  0  0  0
 24 21  1  0  0  0  0
 25  5  1  0  0  0  0
 26 29  1  0  0  0  0
 26 25  1  0  0  0  0
 27 25  2  0  0  0  0
 28 26  1  0  0  0  0
 30 33  1  0  0  0  0
 30 32  1  0  0  0  0
 31 30  1  0  0  0  0
 33 37  1  0  0  0  0
 34 36  1  0  0  0  0
 34 33  1  0  0  0  0
 35 34  2  0  0  0  0
 36 38  1  0  0  0  0
 39 48  1  1  0  0  0
 39 47  1  0  0  0  0
 39 36  1  0  0  0  0
 40 39  1  0  0  0  0
 41 40  1  0  0  0  0
 41 42  1  0  0  0  0
 42 43  2  0  0  0  0
 42 47  1  0  0  0  0
 43 44  1  0  0  0  0
 44 54  1  0  0  0  0
 44 45  2  0  0  0  0
 45 55  1  0  0  0  0
 46 45  1  0  0  0  0
 46 56  1  0  0  0  0
 47 46  2  0  0  0  0
 49 40  1  0  0  0  0
 50 40  1  0  0  0  0
 51 41  1  0  0  0  0
 52 41  1  0  0  0  0
 53 43  1  0  0  0  0
M  END
>  <MODEL>
23

>  <REMARK>
 VINA RESULT:    -6.829      4.552      7.284
 INTER + INTRA:         -10.120
 INTER:                  -9.157
 INTRA:                  -0.963
 UNBOUND:                -0.696
  Name = 
  7 active torsions:
  status: ('A' for Active; 'I' for Inactive)
    1  A    between atoms: C_1  and  O_2
    2  A    between atoms: O_2  and  C_3
    3  A    between atoms: C_7  and  C_8
    4  A    between atoms: C_11  and  C_12
    5  A    between atoms: C_12  and  N_13
    6  A    between atoms: N_16  and  C_17
    7  A    between atoms: C_26  and  C_27
                            x       y       z     vdW  Elec       q    Type
                         _______ _______ _______ _____ _____    ______ ____

>  <TORSDO>
F 7

$$$$
=
 OpenBabel07192307433D

 56 59  0  0  1  0  0  0  0  0999 V2000
    2.3060    6.5980   18.6670 C   0  0  0  0  0  0  0  0  0  0  0  0
    2.4080    7.5310   17.6260 C   0  0  0  0  0  0  0  0  0  0  0  0
    2.1100    8.8820   17.8320 C   0  0  0  0  0  0  0  0  0  0  0  0
    1.7010    9.3470   19.0910 C   0  0  0  0  0  0  0  0  0  0  0  0
    1.5870    8.4140   20.1380 C   0  0  0  0  0  0  0  0  0  0  0  0
    1.8890    7.0570   19.9240 C   0  0  0  0  0  0  0  0  0  0  0  0
    2.7280    7.2100   16.6350 H   0  0  0  0  0  0  0  0  0  0  0  0
    2.1990    9.5730   16.9940 H   0  0  0  0  0  0  0  0  0  0  0  0
    1.7580    6.3440   20.7360 H   0  0  0  0  0  0  0  0  0  0  0  0
    3.9600    3.4370   17.3730 C   0  0  0  0  0  0  0  0  0  0  0  0
    3.1990    2.4550   18.0040 C   0  0  0  0  0  0  0  0  0  0  0  0
    2.1490    2.8210   18.8500 C   0  0  0  0  0  0  0  0  0  0  0  0
    1.8580    4.1680   19.0660 C   0  0  0  0  0  0  0  0  0  0  0  0
    2.6100    5.1760   18.4440 C   0  0  0  0  0  0  0  0  0  0  0  0
    3.6620    4.7860   17.5990 C   0  0  0  0  0  0  0  0  0  0  0  0
    3.3960    1.3970   17.8620 H   0  0  0  0  0  0  0  0  0  0  0  0
    1.5600    2.0530   19.3440 H   0  0  0  0  0  0  0  0  0  0  0  0
    1.0420    4.4290   19.7380 H   0  0  0  0  0  0  0  0  0  0  0  0
    4.2600    5.5420   17.0910 H   0  0  0  0  0  0  0  0  0  0  0  0
    5.0100    3.2190   16.5240 O   0  0  0  0  0  0  0  0  0  0  0  0
    5.4750    4.3360   15.7770 C   0  0  0  0  0  0  0  0  0  0  0  0
    6.0080    4.0160   14.8760 H   0  0  0  0  0  0  0  0  0  0  0  0
    6.0990    4.9920   16.3950 H   0  0  0  0  0  0  0  0  0  0  0  0
    4.6010    4.9130   15.4590 H   0  0  0  0  0  0  0  0  0  0  0  0
    1.0980    8.8170   21.4810 C   0  0  0  0  0  0  0  0  0  0  0  0
    2.0540    9.2020   22.3780 N   0  0  0  0  0  0  0  0  0  0  0  0
   -0.0920    8.8130   21.7650 O   0  0  0  0  0  0  0  0  0  0  0  0
    1.7340    9.5740   23.2630 H   0  0  0  0  0  0  0  0  0  0  0  0
    3.0110    9.3790   22.1060 H   0  0  0  0  0  0  0  0  0  0  0  0
    1.4210   10.8200   19.2700 C   0  0  0  0  0  0  0  0  0  0  0  0
    2.2920   11.3200   19.7080 H   0  0  0  0  0  0  0  0  0  0  0  0
    1.2440   11.3010   18.3010 H   0  0  0  0  0  0  0  0  0  0  0  0
    0.2820   11.0480   20.1240 N   0  0  0  0  0  0  0  0  0  0  0  0
   -0.0690   12.3400   20.4350 C   0  0  0  0  0  0  0  0  0  0  0  0
    0.4210   13.3190   19.8920 O   0  0  0  0  0  0  0  0  0  0  0  0
   -1.0470   12.3640   21.3920 N   0  0  0  0  0  0  0  0  0  0  0  0
    0.2410   10.4110   20.9130 H   0  0  0  0  0  0  0  0  0  0  0  0
   -1.2160   11.4930   21.8680 H   0  0  0  0  0  0  0  0  0  0  0  0
   -1.5320   13.5580   22.0470 C   0  0  2  0  0  0  0  0  0  0  0  0
   -0.4680   14.4780   22.6740 C   0  0  0  0  0  0  0  0  0  0  0  0
   -1.1910   15.2640   23.7800 C   0  0  0  0  0  0  0  0  0  0  0  0
   -2.2710   14.3060   24.1830 C   0  0  0  0  0  0  0  0  0  0  0  0
   -3.0500   14.3390   25.3270 C   0  0  0  0  0  0  0  0  0  0  0  0
   -4.0310   13.3580   25.4890 C   0  0  0  0  0  0  0  0  0  0  0  0
   -4.2250   12.3710   24.5090 C   0  0  0  0  0  0  0  0  0  0  0  0
   -3.4430   12.3540   23.3520 C   0  0  0  0  0  0  0  0  0  0  0  0
   -2.4630   13.3250   23.2020 C   0  0  0  0  0  0  0  0  0  0  0  0
   -2.0830   14.1240   21.2840 H   0  0  0  0  0  0  0  0  0  0  0  0
   -0.0080   15.1390   21.9320 H   0  0  0  0  0  0  0  0  0  0  0  0
    0.3510   13.9080   23.1280 H   0  0  0  0  0  0  0  0  0  0  0  0
   -0.5150   15.5010   24.6060 H   0  0  0  0  0  0  0  0  0  0  0  0
   -1.6340   16.1830   23.3840 H   0  0  0  0  0  0  0  0  0  0  0  0
   -2.9040   15.1040   26.0830 H   0  0  0  0  0  0  0  0  0  0  0  0
   -4.6500   13.3560   26.3830 H   0  0  0  0  0  0  0  0  0  0  0  0
   -4.9910   11.6140   24.6530 H   0  0  0  0  0  0  0  0  0  0  0  0
   -3.5970   11.5920   22.5950 H   0  0  0  0  0  0  0  0  0  0  0  0
  1  6  1  0  0  0  0
  2  3  1  0  0  0  0
  2  1  2  0  0  0  0
  3  4  2  0  0  0  0
  4 30  1  0  0  0  0
  4  5  1  0  0  0  0
  5 25  1  0  0  0  0
  6  5  2  0  0  0  0
  6  9  1  0  0  0  0
  7  2  1  0  0  0  0
  8  3  1  0  0  0  0
 10 15  2  0  0  0  0
 10 11  1  0  0  0  0
 11 12  2  0  0  0  0
 12 13  1  0  0  0  0
 12 17  1  0  0  0  0
 13 18  1  0  0  0  0
 14  1  1  0  0  0  0
 14 13  2  0  0  0  0
 15 14  1  0  0  0  0
 16 11  1  0  0  0  0
 19 15  1  0  0  0  0
 20 10  1  0  0  0  0
 21 23  1  0  0  0  0
 21 20  1  0  0  0  0
 22 21  1  0  0  0  0
 24 21  1  0  0  0  0
 25 27  2  0  0  0  0
 25 26  1  0  0  0  0
 26 28  1  0  0  0  0
 29 26  1  0  0  0  0
 30 31  1  0  0  0  0
 30 33  1  0  0  0  0
 32 30  1  0  0  0  0
 33 34  1  0  0  0  0
 33 37  1  0  0  0  0
 34 36  1  0  0  0  0
 35 34  2  0  0  0  0
 36 38  1  0  0  0  0
 36 39  1  0  0  0  0
 39 48  1  6  0  0  0
 39 40  1  0  0  0  0
 39 47  1  0  0  0  0
 40 50  1  0  0  0  0
 40 41  1  0  0  0  0
 41 42  1  0  0  0  0
 41 51  1  0  0  0  0
 42 43  1  0  0  0  0
 43 44  2  0  0  0  0
 43 53  1  0  0  0  0
 44 54  1  0  0  0  0
 45 55  1  0  0  0  0
 45 44  1  0  0  0  0
 46 45  2  0  0  0  0
 47 46  1  0  0  0  0
 47 42  2  0  0  0  0
 49 40  1  0  0  0  0
 52 41  1  0  0  0  0
 56 46  1  0  0  0  0
M  END
>  <MODEL>
24

>  <REMARK>
 VINA RESULT:    -6.774      3.084      5.991
 INTER + INTRA:         -10.045
 INTER:                  -9.777
 INTRA:                  -0.268
 UNBOUND:                -0.696
  Name = 
  7 active torsions:
  status: ('A' for Active; 'I' for Inactive)
    1  A    between atoms: C_1  and  O_2
    2  A    between atoms: O_2  and  C_3
    3  A    between atoms: C_7  and  C_8
    4  A    between atoms: C_11  and  C_12
    5  A    between atoms: C_12  and  N_13
    6  A    between atoms: N_16  and  C_17
    7  A    between atoms: C_26  and  C_27
                            x       y       z     vdW  Elec       q    Type
                         _______ _______ _______ _____ _____    ______ ____

>  <TORSDO>
F 7

$$$$
=
 OpenBabel07192307433D

 56 59  0  0  1  0  0  0  0  0999 V2000
   -0.4010   12.2290   21.0380 C   0  0  0  0  0  0  0  0  0  0  0  0
   -0.7280   10.9050   20.7160 C   0  0  0  0  0  0  0  0  0  0  0  0
   -0.0270   10.2060   19.7260 C   0  0  0  0  0  0  0  0  0  0  0  0
    1.0270   10.8100   19.0250 C   0  0  0  0  0  0  0  0  0  0  0  0
    1.3530   12.1430   19.3360 C   0  0  0  0  0  0  0  0  0  0  0  0
    0.6470   12.8390   20.3330 C   0  0  0  0  0  0  0  0  0  0  0  0
   -1.5360   10.3990   21.2420 H   0  0  0  0  0  0  0  0  0  0  0  0
   -0.3170    9.1790   19.5040 H   0  0  0  0  0  0  0  0  0  0  0  0
    0.8880   13.8810   20.5330 H   0  0  0  0  0  0  0  0  0  0  0  0
   -3.1960   13.3160   23.3640 C   0  0  0  0  0  0  0  0  0  0  0  0
   -2.5870   14.3680   24.0460 C   0  0  0  0  0  0  0  0  0  0  0  0
   -1.2690   14.7220   23.7500 C   0  0  0  0  0  0  0  0  0  0  0  0
   -0.5570   14.0280   22.7710 C   0  0  0  0  0  0  0  0  0  0  0  0
   -1.1470   12.9650   22.0710 C   0  0  0  0  0  0  0  0  0  0  0  0
   -2.4720   12.6230   22.3860 C   0  0  0  0  0  0  0  0  0  0  0  0
   -3.1080   14.9310   24.8140 H   0  0  0  0  0  0  0  0  0  0  0  0
   -0.7950   15.5410   24.2860 H   0  0  0  0  0  0  0  0  0  0  0  0
    0.4720   14.3150   22.5660 H   0  0  0  0  0  0  0  0  0  0  0  0
   -2.9640   11.8090   21.8550 H   0  0  0  0  0  0  0  0  0  0  0  0
   -4.4740   12.8670   23.5520 O   0  0  0  0  0  0  0  0  0  0  0  0
   -4.7690   12.2730   24.8100 C   0  0  0  0  0  0  0  0  0  0  0  0
   -4.2430   11.3210   24.9310 H   0  0  0  0  0  0  0  0  0  0  0  0
   -5.8490   12.1490   24.9450 H   0  0  0  0  0  0  0  0  0  0  0  0
   -4.4120   12.9510   25.5910 H   0  0  0  0  0  0  0  0  0  0  0  0
    2.4130   12.8720   18.5940 C   0  0  0  0  0  0  0  0  0  0  0  0
    2.3060   12.8650   17.2330 N   0  0  0  0  0  0  0  0  0  0  0  0
    3.3240   13.4520   19.1690 O   0  0  0  0  0  0  0  0  0  0  0  0
    2.9600   13.4380   16.7150 H   0  0  0  0  0  0  0  0  0  0  0  0
    1.4730   12.5450   16.7570 H   0  0  0  0  0  0  0  0  0  0  0  0
    1.7710   10.0040   17.9880 C   0  0  0  0  0  0  0  0  0  0  0  0
    1.5850   10.4110   16.9870 H   0  0  0  0  0  0  0  0  0  0  0  0
    2.8540   10.0680   18.1500 H   0  0  0  0  0  0  0  0  0  0  0  0
    1.3740    8.6180   18.0020 N   0  0  0  0  0  0  0  0  0  0  0  0
    2.3200    7.6570   18.2670 C   0  0  0  0  0  0  0  0  0  0  0  0
    3.4470    7.9140   18.6650 O   0  0  0  0  0  0  0  0  0  0  0  0
    1.8150    6.4020   18.0590 N   0  0  0  0  0  0  0  0  0  0  0  0
    0.7460    8.3750   17.2420 H   0  0  0  0  0  0  0  0  0  0  0  0
    0.9400    6.3590   17.5620 H   0  0  0  0  0  0  0  0  0  0  0  0
    2.5890    5.1830   18.1030 C   0  0  2  0  0  0  0  0  0  0  0  0
    2.2830    4.1350   17.0160 C   0  0  0  0  0  0  0  0  0  0  0  0
    2.7180    2.7820   17.6020 C   0  0  0  0  0  0  0  0  0  0  0  0
    2.5310    3.0080   19.0710 C   0  0  0  0  0  0  0  0  0  0  0  0
    2.4820    2.0570   20.0770 C   0  0  0  0  0  0  0  0  0  0  0  0
    2.3330    2.4930   21.3950 C   0  0  0  0  0  0  0  0  0  0  0  0
    2.2460    3.8630   21.6900 C   0  0  0  0  0  0  0  0  0  0  0  0
    2.3100    4.8160   20.6710 C   0  0  0  0  0  0  0  0  0  0  0  0
    2.4470    4.3760   19.3620 C   0  0  0  0  0  0  0  0  0  0  0  0
    3.6410    5.4830   18.0170 H   0  0  0  0  0  0  0  0  0  0  0  0
    2.7950    4.3590   16.0740 H   0  0  0  0  0  0  0  0  0  0  0  0
    1.2130    4.0870   16.7810 H   0  0  0  0  0  0  0  0  0  0  0  0
    2.0960    1.9660   17.2230 H   0  0  0  0  0  0  0  0  0  0  0  0
    3.7720    2.5790   17.3850 H   0  0  0  0  0  0  0  0  0  0  0  0
    2.5540    0.9980   19.8500 H   0  0  0  0  0  0  0  0  0  0  0  0
    2.2830    1.7660   22.2010 H   0  0  0  0  0  0  0  0  0  0  0  0
    2.1280    4.1850   22.7210 H   0  0  0  0  0  0  0  0  0  0  0  0
    2.2450    5.8750   20.9010 H   0  0  0  0  0  0  0  0  0  0  0  0
  1 14  1  0  0  0  0
  2  1  1  0  0  0  0
  2  7  1  0  0  0  0
  3  2  2  0  0  0  0
  4  5  2  0  0  0  0
  4  3  1  0  0  0  0
  5  6  1  0  0  0  0
  6  9  1  0  0  0  0
  6  1  2  0  0  0  0
  8  3  1  0  0  0  0
 10 20  1  0  0  0  0
 10 11  1  0  0  0  0
 11 16  1  0  0  0  0
 12 11  2  0  0  0  0
 12 17  1  0  0  0  0
 13 12  1  0  0  0  0
 14 15  1  0  0  0  0
 14 13  2  0  0  0  0
 15 10  2  0  0  0  0
 18 13  1  0  0  0  0
 19 15  1  0  0  0  0
 20 21  1  0  0  0  0
 21 22  1  0  0  0  0
 21 23  1  0  0  0  0
 21 24  1  0  0  0  0
 25 27  2  0  0  0  0
 25  5  1  0  0  0  0
 26 25  1  0  0  0  0
 28 26  1  0  0  0  0
 29 26  1  0  0  0  0
 30 33  1  0  0  0  0
 30 32  1  0  0  0  0
 30  4  1  0  0  0  0
 31 30  1  0  0  0  0
 33 34  1  0  0  0  0
 34 35  2  0  0  0  0
 36 39  1  0  0  0  0
 36 34  1  0  0  0  0
 37 33  1  0  0  0  0
 38 36  1  0  0  0  0
 39 48  1  6  0  0  0
 39 47  1  0  0  0  0
 40 41  1  0  0  0  0
 40 39  1  0  0  0  0
 41 42  1  0  0  0  0
 42 47  2  0  0  0  0
 42 43  1  0  0  0  0
 43 44  2  0  0  0  0
 44 45  1  0  0  0  0
 44 54  1  0  0  0  0
 45 55  1  0  0  0  0
 46 56  1  0  0  0  0
 46 45  2  0  0  0  0
 47 46  1  0  0  0  0
 49 40  1  0  0  0  0
 50 40  1  0  0  0  0
 51 41  1  0  0  0  0
 52 41  1  0  0  0  0
 53 43  1  0  0  0  0
M  END
>  <MODEL>
25

>  <REMARK>
 VINA RESULT:    -6.756      3.841     10.715
 INTER + INTRA:         -10.019
 INTER:                  -9.452
 INTRA:                  -0.567
 UNBOUND:                -0.696
  Name = 
  7 active torsions:
  status: ('A' for Active; 'I' for Inactive)
    1  A    between atoms: C_1  and  O_2
    2  A    between atoms: O_2  and  C_3
    3  A    between atoms: C_7  and  C_8
    4  A    between atoms: C_11  and  C_12
    5  A    between atoms: C_12  and  N_13
    6  A    between atoms: N_16  and  C_17
    7  A    between atoms: C_26  and  C_27
                            x       y       z     vdW  Elec       q    Type
                         _______ _______ _______ _____ _____    ______ ____

>  <TORSDO>
F 7

$$$$
=
 OpenBabel07192307433D

 56 59  0  0  1  0  0  0  0  0999 V2000
   -1.4000   11.6490   20.3100 C   0  0  0  0  0  0  0  0  0  0  0  0
   -0.8540   12.0510   19.0830 C   0  0  0  0  0  0  0  0  0  0  0  0
    0.2400   11.3820   18.5230 C   0  0  0  0  0  0  0  0  0  0  0  0
    0.8250   10.2840   19.1720 C   0  0  0  0  0  0  0  0  0  0  0  0
    0.2880    9.8820   20.4090 C   0  0  0  0  0  0  0  0  0  0  0  0
   -0.8120   10.5580   20.9660 C   0  0  0  0  0  0  0  0  0  0  0  0
   -1.2830   12.8950   18.5450 H   0  0  0  0  0  0  0  0  0  0  0  0
    0.6350   11.7300   17.5690 H   0  0  0  0  0  0  0  0  0  0  0  0
   -1.1890   10.2570   21.9420 H   0  0  0  0  0  0  0  0  0  0  0  0
   -3.7790   13.1220   22.8740 C   0  0  0  0  0  0  0  0  0  0  0  0
   -4.7300   13.7200   22.0490 C   0  0  0  0  0  0  0  0  0  0  0  0
   -4.5970   13.6440   20.6610 C   0  0  0  0  0  0  0  0  0  0  0  0
   -3.5140   12.9710   20.0930 C   0  0  0  0  0  0  0  0  0  0  0  0
   -2.5430   12.3620   20.9020 C   0  0  0  0  0  0  0  0  0  0  0  0
   -2.6950   12.4510   22.2950 C   0  0  0  0  0  0  0  0  0  0  0  0
   -5.5840   14.2530   22.4520 H   0  0  0  0  0  0  0  0  0  0  0  0
   -5.3370   14.1150   20.0200 H   0  0  0  0  0  0  0  0  0  0  0  0
   -3.4260   12.9350   19.0100 H   0  0  0  0  0  0  0  0  0  0  0  0
   -1.9640   11.9810   22.9530 H   0  0  0  0  0  0  0  0  0  0  0  0
   -3.7870   13.1180   24.2410 O   0  0  0  0  0  0  0  0  0  0  0  0
   -4.7710   12.3110   24.8760 C   0  0  0  0  0  0  0  0  0  0  0  0
   -4.5710   12.2130   25.9480 H   0  0  0  0  0  0  0  0  0  0  0  0
   -4.8460   11.3290   24.3950 H   0  0  0  0  0  0  0  0  0  0  0  0
   -5.7370   12.8110   24.7630 H   0  0  0  0  0  0  0  0  0  0  0  0
    0.8920    8.7710   21.1880 C   0  0  0  0  0  0  0  0  0  0  0  0
    1.9800    9.0930   21.9480 N   0  0  0  0  0  0  0  0  0  0  0  0
    0.4360    7.6360   21.1560 O   0  0  0  0  0  0  0  0  0  0  0  0
    2.3430    8.3740   22.5620 H   0  0  0  0  0  0  0  0  0  0  0  0
    2.2560   10.0500   22.1210 H   0  0  0  0  0  0  0  0  0  0  0  0
    1.9840    9.5780   18.5110 C   0  0  0  0  0  0  0  0  0  0  0  0
    2.3130   10.1360   17.6270 H   0  0  0  0  0  0  0  0  0  0  0  0
    2.8470    9.5330   19.1870 H   0  0  0  0  0  0  0  0  0  0  0  0
    1.6340    8.2390   18.1060 N   0  0  0  0  0  0  0  0  0  0  0  0
    2.3730    7.1840   18.5850 C   0  0  0  0  0  0  0  0  0  0  0  0
    3.2060    7.2940   19.4730 O   0  0  0  0  0  0  0  0  0  0  0  0
    2.0230    6.0180   17.9600 N   0  0  0  0  0  0  0  0  0  0  0  0
    1.4090    8.1670   17.1190 H   0  0  0  0  0  0  0  0  0  0  0  0
    1.4590    6.1170   17.1320 H   0  0  0  0  0  0  0  0  0  0  0  0
    2.7080    4.7560   18.1230 C   0  0  2  0  0  0  0  0  0  0  0  0
    2.4530    3.6900   17.0400 C   0  0  0  0  0  0  0  0  0  0  0  0
    2.7360    2.3360   17.7090 C   0  0  0  0  0  0  0  0  0  0  0  0
    2.4100    2.6250   19.1420 C   0  0  0  0  0  0  0  0  0  0  0  0
    2.1940    1.7150   20.1630 C   0  0  0  0  0  0  0  0  0  0  0  0
    1.9340    2.2060   21.4450 C   0  0  0  0  0  0  0  0  0  0  0  0
    1.9050    3.5890   21.6890 C   0  0  0  0  0  0  0  0  0  0  0  0
    2.1360    4.4990   20.6550 C   0  0  0  0  0  0  0  0  0  0  0  0
    2.3830    4.0050   19.3820 C   0  0  0  0  0  0  0  0  0  0  0  0
    3.7810    4.9890   18.1420 H   0  0  0  0  0  0  0  0  0  0  0  0
    3.0740    3.8500   16.1530 H   0  0  0  0  0  0  0  0  0  0  0  0
    1.4130    3.6990   16.6930 H   0  0  0  0  0  0  0  0  0  0  0  0
    2.1060    1.5460   17.2890 H   0  0  0  0  0  0  0  0  0  0  0  0
    3.7910    2.0620   17.6120 H   0  0  0  0  0  0  0  0  0  0  0  0
    2.2210    0.6460   19.9770 H   0  0  0  0  0  0  0  0  0  0  0  0
    1.7520    1.5130   22.2620 H   0  0  0  0  0  0  0  0  0  0  0  0
    1.6980    3.9540   22.6910 H   0  0  0  0  0  0  0  0  0  0  0  0
    2.1150    5.5670   20.8460 H   0  0  0  0  0  0  0  0  0  0  0  0
  1 14  1  0  0  0  0
  1  6  1  0  0  0  0
  2  1  2  0  0  0  0
  3  2  1  0  0  0  0
  3  4  2  0  0  0  0
  4  5  1  0  0  0  0
  5  6  2  0  0  0  0
  5 25  1  0  0  0  0
  6  9  1  0  0  0  0
  7  2  1  0  0  0  0
  8  3  1  0  0  0  0
 10 20  1  0  0  0  0
 11 16  1  0  0  0  0
 11 10  2  0  0  0  0
 12 11  1  0  0  0  0
 13 12  2  0  0  0  0
 13 14  1  0  0  0  0
 14 15  2  0  0  0  0
 15 10  1  0  0  0  0
 15 19  1  0  0  0  0
 17 12  1  0  0  0  0
 18 13  1  0  0  0  0
 20 21  1  0  0  0  0
 21 22  1  0  0  0  0
 23 21  1  0  0  0  0
 24 21  1  0  0  0  0
 25 26  1  0  0  0  0
 26 29  1  0  0  0  0
 26 28  1  0  0  0  0
 27 25  2  0  0  0  0
 30  4  1  0  0  0  0
 30 32  1  0  0  0  0
 31 30  1  0  0  0  0
 33 30  1  0  0  0  0
 33 34  1  0  0  0  0
 34 35  2  0  0  0  0
 36 39  1  0  0  0  0
 36 34  1  0  0  0  0
 37 33  1  0  0  0  0
 38 36  1  0  0  0  0
 39 48  1  1  0  0  0
 39 47  1  0  0  0  0
 40 41  1  0  0  0  0
 40 39  1  0  0  0  0
 41 42  1  0  0  0  0
 42 47  2  0  0  0  0
 42 43  1  0  0  0  0
 43 44  2  0  0  0  0
 44 45  1  0  0  0  0
 44 54  1  0  0  0  0
 45 55  1  0  0  0  0
 46 56  1  0  0  0  0
 46 45  2  0  0  0  0
 47 46  1  0  0  0  0
 49 40  1  0  0  0  0
 50 40  1  0  0  0  0
 51 41  1  0  0  0  0
 52 41  1  0  0  0  0
 53 43  1  0  0  0  0
M  END
>  <MODEL>
26

>  <REMARK>
 VINA RESULT:    -6.685      3.718     10.432
 INTER + INTRA:          -9.921
 INTER:                  -9.236
 INTRA:                  -0.686
 UNBOUND:                -0.696
  Name = 
  7 active torsions:
  status: ('A' for Active; 'I' for Inactive)
    1  A    between atoms: C_1  and  O_2
    2  A    between atoms: O_2  and  C_3
    3  A    between atoms: C_7  and  C_8
    4  A    between atoms: C_11  and  C_12
    5  A    between atoms: C_12  and  N_13
    6  A    between atoms: N_16  and  C_17
    7  A    between atoms: C_26  and  C_27
                            x       y       z     vdW  Elec       q    Type
                         _______ _______ _______ _____ _____    ______ ____

>  <TORSDO>
F 7

$$$$
=
 OpenBabel07192307433D

 56 59  0  0  1  0  0  0  0  0999 V2000
   -1.5170   11.6400   19.6730 C   0  0  0  0  0  0  0  0  0  0  0  0
   -1.5520   10.3150   19.2190 C   0  0  0  0  0  0  0  0  0  0  0  0
   -0.4270    9.7160   18.6410 C   0  0  0  0  0  0  0  0  0  0  0  0
    0.7750   10.4270   18.4970 C   0  0  0  0  0  0  0  0  0  0  0  0
    0.8140   11.7610   18.9410 C   0  0  0  0  0  0  0  0  0  0  0  0
   -0.3200   12.3560   19.5230 C   0  0  0  0  0  0  0  0  0  0  0  0
   -2.4640    9.7280   19.3180 H   0  0  0  0  0  0  0  0  0  0  0  0
   -0.4980    8.6840   18.2980 H   0  0  0  0  0  0  0  0  0  0  0  0
   -0.2820   13.4010   19.8250 H   0  0  0  0  0  0  0  0  0  0  0  0
   -3.8380   13.2510   22.2060 C   0  0  0  0  0  0  0  0  0  0  0  0
   -4.9740   13.4720   21.4300 C   0  0  0  0  0  0  0  0  0  0  0  0
   -4.9850   13.0980   20.0850 C   0  0  0  0  0  0  0  0  0  0  0  0
   -3.8610   12.5020   19.5110 C   0  0  0  0  0  0  0  0  0  0  0  0
   -2.7040   12.2690   20.2710 C   0  0  0  0  0  0  0  0  0  0  0  0
   -2.7140   12.6550   21.6210 C   0  0  0  0  0  0  0  0  0  0  0  0
   -5.8670   13.9340   21.8390 H   0  0  0  0  0  0  0  0  0  0  0  0
   -5.8710   13.2750   19.4800 H   0  0  0  0  0  0  0  0  0  0  0  0
   -3.8890   12.2290   18.4590 H   0  0  0  0  0  0  0  0  0  0  0  0
   -1.8370   12.4800   22.2430 H   0  0  0  0  0  0  0  0  0  0  0  0
   -3.6930   13.5650   23.5290 O   0  0  0  0  0  0  0  0  0  0  0  0
   -4.0860   12.5760   24.4720 C   0  0  0  0  0  0  0  0  0  0  0  0
   -3.6270   12.7560   25.4490 H   0  0  0  0  0  0  0  0  0  0  0  0
   -3.8580   11.5690   24.1060 H   0  0  0  0  0  0  0  0  0  0  0  0
   -5.1710   12.6460   24.5970 H   0  0  0  0  0  0  0  0  0  0  0  0
    2.0280   12.5980   18.7650 C   0  0  0  0  0  0  0  0  0  0  0  0
    2.3620   12.9080   17.4780 N   0  0  0  0  0  0  0  0  0  0  0  0
    2.6850   12.9940   19.7180 O   0  0  0  0  0  0  0  0  0  0  0  0
    3.1260   13.5580   17.3420 H   0  0  0  0  0  0  0  0  0  0  0  0
    1.7380   12.7410   16.7000 H   0  0  0  0  0  0  0  0  0  0  0  0
    1.9690    9.7270   17.8940 C   0  0  0  0  0  0  0  0  0  0  0  0
    2.2160   10.1700   16.9220 H   0  0  0  0  0  0  0  0  0  0  0  0
    2.8550    9.8570   18.5270 H   0  0  0  0  0  0  0  0  0  0  0  0
    1.7260    8.3180   17.7090 N   0  0  0  0  0  0  0  0  0  0  0  0
    2.6630    7.4160   18.1560 C   0  0  0  0  0  0  0  0  0  0  0  0
    3.6140    7.7270   18.8580 O   0  0  0  0  0  0  0  0  0  0  0  0
    2.3610    6.1490   17.7370 N   0  0  0  0  0  0  0  0  0  0  0  0
    1.3480    8.0950   16.7930 H   0  0  0  0  0  0  0  0  0  0  0  0
    1.6570    6.0800   17.0200 H   0  0  0  0  0  0  0  0  0  0  0  0
    3.2170    4.9970   17.9070 C   0  0  2  0  0  0  0  0  0  0  0  0
    3.6040    4.6370   19.3540 C   0  0  0  0  0  0  0  0  0  0  0  0
    4.9240    3.8570   19.2540 C   0  0  0  0  0  0  0  0  0  0  0  0
    5.5270    4.4290   18.0080 C   0  0  0  0  0  0  0  0  0  0  0  0
    6.8390    4.3280   17.5760 C   0  0  0  0  0  0  0  0  0  0  0  0
    7.1820    4.9130   16.3550 C   0  0  0  0  0  0  0  0  0  0  0  0
    6.2150    5.5780   15.5840 C   0  0  0  0  0  0  0  0  0  0  0  0
    4.8910    5.6640   16.0210 C   0  0  0  0  0  0  0  0  0  0  0  0
    4.5600    5.0900   17.2400 C   0  0  0  0  0  0  0  0  0  0  0  0
    2.6820    4.1480   17.4630 H   0  0  0  0  0  0  0  0  0  0  0  0
    2.8210    4.0590   19.8560 H   0  0  0  0  0  0  0  0  0  0  0  0
    3.7700    5.5290   19.9690 H   0  0  0  0  0  0  0  0  0  0  0  0
    5.5520    4.0220   20.1350 H   0  0  0  0  0  0  0  0  0  0  0  0
    4.7400    2.7850   19.1240 H   0  0  0  0  0  0  0  0  0  0  0  0
    7.5860    3.8100   18.1690 H   0  0  0  0  0  0  0  0  0  0  0  0
    8.2070    4.8560   15.9980 H   0  0  0  0  0  0  0  0  0  0  0  0
    6.5000    6.0310   14.6380 H   0  0  0  0  0  0  0  0  0  0  0  0
    4.1450    6.1760   15.4220 H   0  0  0  0  0  0  0  0  0  0  0  0
  1 14  1  0  0  0  0
  2  7  1  0  0  0  0
  2  1  2  0  0  0  0
  3  2  1  0  0  0  0
  4  3  2  0  0  0  0
  4  5  1  0  0  0  0
  5  6  2  0  0  0  0
  6  1  1  0  0  0  0
  6  9  1  0  0  0  0
  8  3  1  0  0  0  0
 10 20  1  0  0  0  0
 11 16  1  0  0  0  0
 11 10  2  0  0  0  0
 12 11  1  0  0  0  0
 13 12  2  0  0  0  0
 13 14  1  0  0  0  0
 14 15  2  0  0  0  0
 15 10  1  0  0  0  0
 15 19  1  0  0  0  0
 17 12  1  0  0  0  0
 18 13  1  0  0  0  0
 20 21  1  0  0  0  0
 21 24  1  0  0  0  0
 21 22  1  0  0  0  0
 23 21  1  0  0  0  0
 25  5  1  0  0  0  0
 25 27  2  0  0  0  0
 26 25  1  0  0  0  0
 28 26  1  0  0  0  0
 29 26  1  0  0  0  0
 30  4  1  0  0  0  0
 30 32  1  0  0  0  0
 31 30  1  0  0  0  0
 33 30  1  0  0  0  0
 33 34  1  0  0  0  0
 34 35  2  0  0  0  0
 36 39  1  0  0  0  0
 36 34  1  0  0  0  0
 37 33  1  0  0  0  0
 38 36  1  0  0  0  0
 39 48  1  6  0  0  0
 39 40  1  0  0  0  0
 40 49  1  0  0  0  0
 40 50  1  0  0  0  0
 41 40  1  0  0  0  0
 41 51  1  0  0  0  0
 42 41  1  0  0  0  0
 43 42  1  0  0  0  0
 43 53  1  0  0  0  0
 44 43  2  0  0  0  0
 45 46  2  0  0  0  0
 45 44  1  0  0  0  0
 46 47  1  0  0  0  0
 47 39  1  0  0  0  0
 47 42  2  0  0  0  0
 52 41  1  0  0  0  0
 54 44  1  0  0  0  0
 55 45  1  0  0  0  0
 56 46  1  0  0  0  0
M  END
>  <MODEL>
27

>  <REMARK>
 VINA RESULT:    -6.623      3.483     10.905
 INTER + INTRA:          -9.836
 INTER:                  -9.326
 INTRA:                  -0.510
 UNBOUND:                -0.696
  Name = 
  7 active torsions:
  status: ('A' for Active; 'I' for Inactive)
    1  A    between atoms: C_1  and  O_2
    2  A    between atoms: O_2  and  C_3
    3  A    between atoms: C_7  and  C_8
    4  A    between atoms: C_11  and  C_12
    5  A    between atoms: C_12  and  N_13
    6  A    between atoms: N_16  and  C_17
    7  A    between atoms: C_26  and  C_27
                            x       y       z     vdW  Elec       q    Type
                         _______ _______ _______ _____ _____    ______ ____

>  <TORSDO>
F 7

$$$$
=
 OpenBabel07192307433D

 56 59  0  0  1  0  0  0  0  0999 V2000
   -1.0490   12.4310   21.8770 C   0  0  0  0  0  0  0  0  0  0  0  0
   -0.8500   12.8650   20.5590 C   0  0  0  0  0  0  0  0  0  0  0  0
   -0.2680   12.0280   19.6000 C   0  0  0  0  0  0  0  0  0  0  0  0
    0.1350   10.7250   19.9280 C   0  0  0  0  0  0  0  0  0  0  0  0
   -0.0520   10.2870   21.2520 C   0  0  0  0  0  0  0  0  0  0  0  0
   -0.6390   11.1320   22.2100 C   0  0  0  0  0  0  0  0  0  0  0  0
   -1.1550   13.8680   20.2630 H   0  0  0  0  0  0  0  0  0  0  0  0
   -0.1280   12.4070   18.5880 H   0  0  0  0  0  0  0  0  0  0  0  0
   -0.7400   10.7890   23.2380 H   0  0  0  0  0  0  0  0  0  0  0  0
   -3.5540   13.9450   24.2910 C   0  0  0  0  0  0  0  0  0  0  0  0
   -2.8190   15.0080   24.8120 C   0  0  0  0  0  0  0  0  0  0  0  0
   -1.5100   15.2310   24.3800 C   0  0  0  0  0  0  0  0  0  0  0  0
   -0.9330   14.3940   23.4250 C   0  0  0  0  0  0  0  0  0  0  0  0
   -1.6510   13.3170   22.8850 C   0  0  0  0  0  0  0  0  0  0  0  0
   -2.9660   13.1090   23.3350 C   0  0  0  0  0  0  0  0  0  0  0  0
   -3.2330   15.6800   25.5580 H   0  0  0  0  0  0  0  0  0  0  0  0
   -0.9380   16.0580   24.7920 H   0  0  0  0  0  0  0  0  0  0  0  0
    0.0920   14.5800   23.1120 H   0  0  0  0  0  0  0  0  0  0  0  0
   -3.5550   12.2880   22.9290 H   0  0  0  0  0  0  0  0  0  0  0  0
   -4.8390   13.6160   24.6220 O   0  0  0  0  0  0  0  0  0  0  0  0
   -5.1270   12.2330   24.7850 C   0  0  0  0  0  0  0  0  0  0  0  0
   -4.4510   11.6140   24.1860 H   0  0  0  0  0  0  0  0  0  0  0  0
   -6.1760   12.0180   24.5480 H   0  0  0  0  0  0  0  0  0  0  0  0
   -4.9650   11.9790   25.8360 H   0  0  0  0  0  0  0  0  0  0  0  0
    0.4070    8.9450   21.6930 C   0  0  0  0  0  0  0  0  0  0  0  0
    1.6100    8.9040   22.3390 N   0  0  0  0  0  0  0  0  0  0  0  0
   -0.2570    7.9360   21.4960 O   0  0  0  0  0  0  0  0  0  0  0  0
    1.8920    8.0160   22.7340 H   0  0  0  0  0  0  0  0  0  0  0  0
    2.0800    9.7380   22.6620 H   0  0  0  0  0  0  0  0  0  0  0  0
    0.7310    9.8520   18.8510 C   0  0  0  0  0  0  0  0  0  0  0  0
   -0.0650    9.3470   18.2900 H   0  0  0  0  0  0  0  0  0  0  0  0
    1.2850   10.4570   18.1230 H   0  0  0  0  0  0  0  0  0  0  0  0
    1.6130    8.8520   19.3990 N   0  0  0  0  0  0  0  0  0  0  0  0
    2.1370    7.8950   18.5630 C   0  0  0  0  0  0  0  0  0  0  0  0
    2.0390    7.9400   17.3450 O   0  0  0  0  0  0  0  0  0  0  0  0
    2.7950    6.9290   19.2750 N   0  0  0  0  0  0  0  0  0  0  0  0
    1.2950    8.4860   20.2910 H   0  0  0  0  0  0  0  0  0  0  0  0
    2.6330    6.9320   20.2690 H   0  0  0  0  0  0  0  0  0  0  0  0
    3.3290    5.7090   18.7140 C   0  0  2  0  0  0  0  0  0  0  0  0
    3.4860    4.5200   19.6810 C   0  0  0  0  0  0  0  0  0  0  0  0
    4.5820    3.6290   19.0750 C   0  0  0  0  0  0  0  0  0  0  0  0
    5.4140    4.6270   18.3290 C   0  0  0  0  0  0  0  0  0  0  0  0
    6.6950    4.4600   17.8310 C   0  0  0  0  0  0  0  0  0  0  0  0
    7.2770    5.5190   17.1310 C   0  0  0  0  0  0  0  0  0  0  0  0
    6.5720    6.7170   16.9300 C   0  0  0  0  0  0  0  0  0  0  0  0
    5.2750    6.8710   17.4240 C   0  0  0  0  0  0  0  0  0  0  0  0
    4.7070    5.8200   18.1290 C   0  0  0  0  0  0  0  0  0  0  0  0
    2.6450    5.4180   17.9060 H   0  0  0  0  0  0  0  0  0  0  0  0
    2.5450    3.9780   19.8210 H   0  0  0  0  0  0  0  0  0  0  0  0
    3.8080    4.8420   20.6780 H   0  0  0  0  0  0  0  0  0  0  0  0
    5.1500    3.1120   19.8540 H   0  0  0  0  0  0  0  0  0  0  0  0
    4.1560    2.8990   18.3790 H   0  0  0  0  0  0  0  0  0  0  0  0
    7.2390    3.5330   17.9820 H   0  0  0  0  0  0  0  0  0  0  0  0
    8.2850    5.4170   16.7380 H   0  0  0  0  0  0  0  0  0  0  0  0
    7.0410    7.5320   16.3850 H   0  0  0  0  0  0  0  0  0  0  0  0
    4.7320    7.7970   17.2660 H   0  0  0  0  0  0  0  0  0  0  0  0
  1  6  1  0  0  0  0
  1 14  1  0  0  0  0
  2  1  2  0  0  0  0
  3  4  2  0  0  0  0
  3  2  1  0  0  0  0
  4  5  1  0  0  0  0
  5 25  1  0  0  0  0
  5  6  2  0  0  0  0
  6  9  1  0  0  0  0
  7  2  1  0  0  0  0
  8  3  1  0  0  0  0
 10 20  1  0  0  0  0
 10 11  1  0  0  0  0
 11 16  1  0  0  0  0
 12 17  1  0  0  0  0
 12 11  2  0  0  0  0
 13 12  1  0  0  0  0
 14 15  1  0  0  0  0
 14 13  2  0  0  0  0
 15 10  2  0  0  0  0
 18 13  1  0  0  0  0
 19 15  1  0  0  0  0
 20 21  1  0  0  0  0
 21 24  1  0  0  0  0
 22 21  1  0  0  0  0
 23 21  1  0  0  0  0
 25 26  1  0  0  0  0
 26 29  1  0  0  0  0
 26 28  1  0  0  0  0
 27 25  2  0  0  0  0
 30 33  1  0  0  0  0
 30  4  1  0  0  0  0
 31 30  1  0  0  0  0
 32 30  1  0  0  0  0
 33 37  1  0  0  0  0
 34 36  1  0  0  0  0
 34 33  1  0  0  0  0
 35 34  2  0  0  0  0
 36 38  1  0  0  0  0
 39 48  1  6  0  0  0
 39 36  1  0  0  0  0
 39 40  1  0  0  0  0
 40 49  1  0  0  0  0
 40 50  1  0  0  0  0
 41 40  1  0  0  0  0
 41 51  1  0  0  0  0
 42 41  1  0  0  0  0
 43 53  1  0  0  0  0
 43 42  2  0  0  0  0
 44 43  1  0  0  0  0
 45 44  2  0  0  0  0
 45 46  1  0  0  0  0
 46 47  2  0  0  0  0
 47 42  1  0  0  0  0
 47 39  1  0  0  0  0
 52 41  1  0  0  0  0
 54 44  1  0  0  0  0
 55 45  1  0  0  0  0
 56 46  1  0  0  0  0
M  END
>  <MODEL>
28

>  <REMARK>
 VINA RESULT:    -6.564      3.115     11.133
 INTER + INTRA:          -9.755
 INTER:                  -9.937
 INTRA:                   0.183
 UNBOUND:                -0.696
  Name = 
  7 active torsions:
  status: ('A' for Active; 'I' for Inactive)
    1  A    between atoms: C_1  and  O_2
    2  A    between atoms: O_2  and  C_3
    3  A    between atoms: C_7  and  C_8
    4  A    between atoms: C_11  and  C_12
    5  A    between atoms: C_12  and  N_13
    6  A    between atoms: N_16  and  C_17
    7  A    between atoms: C_26  and  C_27
                            x       y       z     vdW  Elec       q    Type
                         _______ _______ _______ _____ _____    ______ ____

>  <TORSDO>
F 7

$$$$
=
 OpenBabel07192307433D

 56 59  0  0  1  0  0  0  0  0999 V2000
    4.0710    6.3100   18.3560 C   0  0  0  0  0  0  0  0  0  0  0  0
    3.5070    5.7130   19.4920 C   0  0  0  0  0  0  0  0  0  0  0  0
    2.3780    6.2590   20.1130 C   0  0  0  0  0  0  0  0  0  0  0  0
    1.7730    7.4230   19.6170 C   0  0  0  0  0  0  0  0  0  0  0  0
    2.3410    8.0340   18.4840 C   0  0  0  0  0  0  0  0  0  0  0  0
    3.4740    7.4800   17.8630 C   0  0  0  0  0  0  0  0  0  0  0  0
    3.9440    4.8040   19.9040 H   0  0  0  0  0  0  0  0  0  0  0  0
    1.9740    5.7640   20.9960 H   0  0  0  0  0  0  0  0  0  0  0  0
    3.9210    7.9880   17.0110 H   0  0  0  0  0  0  0  0  0  0  0  0
    6.4610    5.0590   15.6880 C   0  0  0  0  0  0  0  0  0  0  0  0
    7.5410    4.6450   16.4640 C   0  0  0  0  0  0  0  0  0  0  0  0
    7.4920    4.7740   17.8540 C   0  0  0  0  0  0  0  0  0  0  0  0
    6.3640    5.3150   18.4710 C   0  0  0  0  0  0  0  0  0  0  0  0
    5.2640    5.7400   17.7120 C   0  0  0  0  0  0  0  0  0  0  0  0
    5.3340    5.6040   16.3160 C   0  0  0  0  0  0  0  0  0  0  0  0
    8.4360    4.2210   16.0210 H   0  0  0  0  0  0  0  0  0  0  0  0
    8.3380    4.4540   18.4570 H   0  0  0  0  0  0  0  0  0  0  0  0
    6.3530    5.4150   19.5540 H   0  0  0  0  0  0  0  0  0  0  0  0
    4.4930    5.9140   15.6960 H   0  0  0  0  0  0  0  0  0  0  0  0
    6.3760    4.9900   14.3250 O   0  0  0  0  0  0  0  0  0  0  0  0
    5.5930    3.9340   13.7810 C   0  0  0  0  0  0  0  0  0  0  0  0
    5.1820    4.2080   12.8050 H   0  0  0  0  0  0  0  0  0  0  0  0
    4.8000    3.6340   14.4750 H   0  0  0  0  0  0  0  0  0  0  0  0
    6.2510    3.0720   13.6340 H   0  0  0  0  0  0  0  0  0  0  0  0
    1.7970    9.3040   17.9380 C   0  0  0  0  0  0  0  0  0  0  0  0
    0.5390    9.2410   17.4100 N   0  0  0  0  0  0  0  0  0  0  0  0
    2.4350   10.3480   17.9690 O   0  0  0  0  0  0  0  0  0  0  0  0
    0.1140   10.1140   17.1250 H   0  0  0  0  0  0  0  0  0  0  0  0
   -0.0620    8.4380   17.5360 H   0  0  0  0  0  0  0  0  0  0  0  0
    0.5390    7.9560   20.3060 C   0  0  0  0  0  0  0  0  0  0  0  0
   -0.2170    8.2360   19.5630 H   0  0  0  0  0  0  0  0  0  0  0  0
    0.0820    7.1820   20.9350 H   0  0  0  0  0  0  0  0  0  0  0  0
    0.8360    9.1090   21.1190 N   0  0  0  0  0  0  0  0  0  0  0  0
    0.1850   10.2910   20.8600 C   0  0  0  0  0  0  0  0  0  0  0  0
   -0.7610   10.3840   20.0910 O   0  0  0  0  0  0  0  0  0  0  0  0
    0.7170   11.3140   21.5980 N   0  0  0  0  0  0  0  0  0  0  0  0
    1.8270    9.2190   21.3070 H   0  0  0  0  0  0  0  0  0  0  0  0
    1.6000   11.1210   22.0420 H   0  0  0  0  0  0  0  0  0  0  0  0
    0.3630   12.7080   21.4520 C   0  0  2  0  0  0  0  0  0  0  0  0
   -1.1070   13.0100   21.1030 C   0  0  0  0  0  0  0  0  0  0  0  0
   -1.1010   14.3840   20.4130 C   0  0  0  0  0  0  0  0  0  0  0  0
    0.2610   14.4090   19.7900 C   0  0  0  0  0  0  0  0  0  0  0  0
    0.7270   15.2610   18.8020 C   0  0  0  0  0  0  0  0  0  0  0  0
    2.0530   15.1320   18.3860 C   0  0  0  0  0  0  0  0  0  0  0  0
    2.8950   14.1680   18.9660 C   0  0  0  0  0  0  0  0  0  0  0  0
    2.4210   13.3220   19.9710 C   0  0  0  0  0  0  0  0  0  0  0  0
    1.0980   13.4480   20.3720 C   0  0  0  0  0  0  0  0  0  0  0  0
    0.6040   13.1880   22.4090 H   0  0  0  0  0  0  0  0  0  0  0  0
   -1.7500   12.9980   21.9900 H   0  0  0  0  0  0  0  0  0  0  0  0
   -1.5250   12.2710   20.4100 H   0  0  0  0  0  0  0  0  0  0  0  0
   -1.9000   14.4590   19.6710 H   0  0  0  0  0  0  0  0  0  0  0  0
   -1.1940   15.1930   21.1450 H   0  0  0  0  0  0  0  0  0  0  0  0
    0.0790   16.0100   18.3570 H   0  0  0  0  0  0  0  0  0  0  0  0
    2.4400   15.7820   17.6060 H   0  0  0  0  0  0  0  0  0  0  0  0
    3.9230   14.0790   18.6290 H   0  0  0  0  0  0  0  0  0  0  0  0
    3.0730   12.5800   20.4190 H   0  0  0  0  0  0  0  0  0  0  0  0
  1  2  1  0  0  0  0
  2  7  1  0  0  0  0
  2  3  2  0  0  0  0
  3  8  1  0  0  0  0
  4  3  1  0  0  0  0
  4 30  1  0  0  0  0
  5  4  2  0  0  0  0
  6  1  2  0  0  0  0
  6  5  1  0  0  0  0
  9  6  1  0  0  0  0
 10 15  2  0  0  0  0
 10 11  1  0  0  0  0
 11 12  2  0  0  0  0
 12 17  1  0  0  0  0
 12 13  1  0  0  0  0
 13 18  1  0  0  0  0
 14  1  1  0  0  0  0
 14 13  2  0  0  0  0
 15 14  1  0  0  0  0
 16 11  1  0  0  0  0
 19 15  1  0  0  0  0
 20 10  1  0  0  0  0
 21 20  1  0  0  0  0
 21 23  1  0  0  0  0
 22 21  1  0  0  0  0
 24 21  1  0  0  0  0
 25 27  2  0  0  0  0
 25  5  1  0  0  0  0
 26 29  1  0  0  0  0
 26 25  1  0  0  0  0
 28 26  1  0  0  0  0
 30 32  1  0  0  0  0
 30 33  1  0  0  0  0
 31 30  1  0  0  0  0
 33 37  1  0  0  0  0
 34 33  1  0  0  0  0
 34 36  1  0  0  0  0
 35 34  2  0  0  0  0
 36 38  1  0  0  0  0
 39 36  1  0  0  0  0
 39 48  1  1  0  0  0
 40 39  1  0  0  0  0
 40 49  1  0  0  0  0
 41 40  1  0  0  0  0
 41 52  1  0  0  0  0
 42 47  1  0  0  0  0
 42 41  1  0  0  0  0
 43 42  2  0  0  0  0
 44 43  1  0  0  0  0
 44 45  2  0  0  0  0
 45 46  1  0  0  0  0
 46 47  2  0  0  0  0
 46 56  1  0  0  0  0
 47 39  1  0  0  0  0
 50 40  1  0  0  0  0
 51 41  1  0  0  0  0
 53 43  1  0  0  0  0
 54 44  1  0  0  0  0
 55 45  1  0  0  0  0
M  END
>  <MODEL>
29

>  <REMARK>
 VINA RESULT:    -6.538      2.814      4.640
 INTER + INTRA:          -9.719
 INTER:                  -9.023
 INTRA:                  -0.696
 UNBOUND:                -0.696
  Name = 
  7 active torsions:
  status: ('A' for Active; 'I' for Inactive)
    1  A    between atoms: C_1  and  O_2
    2  A    between atoms: O_2  and  C_3
    3  A    between atoms: C_7  and  C_8
    4  A    between atoms: C_11  and  C_12
    5  A    between atoms: C_12  and  N_13
    6  A    between atoms: N_16  and  C_17
    7  A    between atoms: C_26  and  C_27
                            x       y       z     vdW  Elec       q    Type
                         _______ _______ _______ _____ _____    ______ ____

>  <TORSDO>
F 7

$$$$
=
 OpenBabel07192307433D

 56 59  0  0  1  0  0  0  0  0999 V2000
   -1.6200   11.4810   22.3910 C   0  0  0  0  0  0  0  0  0  0  0  0
   -1.0330   10.4870   23.1860 C   0  0  0  0  0  0  0  0  0  0  0  0
    0.1120    9.8030   22.7630 C   0  0  0  0  0  0  0  0  0  0  0  0
    0.7120   10.0930   21.5280 C   0  0  0  0  0  0  0  0  0  0  0  0
    0.1220   11.0830   20.7210 C   0  0  0  0  0  0  0  0  0  0  0  0
   -1.0280   11.7670   21.1520 C   0  0  0  0  0  0  0  0  0  0  0  0
   -1.4650   10.2370   24.1540 H   0  0  0  0  0  0  0  0  0  0  0  0
    0.5340    9.0340   23.4110 H   0  0  0  0  0  0  0  0  0  0  0  0
   -1.4920   12.5020   20.4970 H   0  0  0  0  0  0  0  0  0  0  0  0
   -4.6310   13.7900   22.3960 C   0  0  0  0  0  0  0  0  0  0  0  0
   -5.1470   13.5590   23.6700 C   0  0  0  0  0  0  0  0  0  0  0  0
   -4.5160   12.6540   24.5250 C   0  0  0  0  0  0  0  0  0  0  0  0
   -3.3680   11.9770   24.1110 C   0  0  0  0  0  0  0  0  0  0  0  0
   -2.8300   12.1910   22.8330 C   0  0  0  0  0  0  0  0  0  0  0  0
   -3.4810   13.1040   21.9880 C   0  0  0  0  0  0  0  0  0  0  0  0
   -6.0380   14.0650   24.0270 H   0  0  0  0  0  0  0  0  0  0  0  0
   -4.9230   12.4730   25.5170 H   0  0  0  0  0  0  0  0  0  0  0  0
   -2.9010   11.2680   24.7910 H   0  0  0  0  0  0  0  0  0  0  0  0
   -3.0840   13.3010   20.9930 H   0  0  0  0  0  0  0  0  0  0  0  0
   -5.1450   14.6460   21.4620 O   0  0  0  0  0  0  0  0  0  0  0  0
   -5.1450   14.2020   20.1110 C   0  0  0  0  0  0  0  0  0  0  0  0
   -5.9210   14.7060   19.5280 H   0  0  0  0  0  0  0  0  0  0  0  0
   -5.2500   13.1130   20.0540 H   0  0  0  0  0  0  0  0  0  0  0  0
   -4.1770   14.4650   19.6730 H   0  0  0  0  0  0  0  0  0  0  0  0
    0.6590   11.4010   19.3740 C   0  0  0  0  0  0  0  0  0  0  0  0
    0.1500   10.6730   18.3360 N   0  0  0  0  0  0  0  0  0  0  0  0
    1.5030   12.2700   19.2020 O   0  0  0  0  0  0  0  0  0  0  0  0
    0.4290   10.9420   17.4020 H   0  0  0  0  0  0  0  0  0  0  0  0
   -0.6650   10.0830   18.4380 H   0  0  0  0  0  0  0  0  0  0  0  0
    1.9640    9.3480   21.1320 C   0  0  0  0  0  0  0  0  0  0  0  0
    2.2020    9.5420   20.0790 H   0  0  0  0  0  0  0  0  0  0  0  0
    2.8250    9.7000   21.7130 H   0  0  0  0  0  0  0  0  0  0  0  0
    1.8210    7.9250   21.3170 N   0  0  0  0  0  0  0  0  0  0  0  0
    1.8090    7.1080   20.2120 C   0  0  0  0  0  0  0  0  0  0  0  0
    2.0850    7.4950   19.0860 O   0  0  0  0  0  0  0  0  0  0  0  0
    1.4840    5.8240   20.5570 N   0  0  0  0  0  0  0  0  0  0  0  0
    1.1250    7.6820   22.0140 H   0  0  0  0  0  0  0  0  0  0  0  0
    1.1080    5.7010   21.4830 H   0  0  0  0  0  0  0  0  0  0  0  0
    1.2380    4.7540   19.6170 C   0  0  2  0  0  0  0  0  0  0  0  0
    0.7140    3.4300   20.2050 C   0  0  0  0  0  0  0  0  0  0  0  0
    1.1180    2.3360   19.2040 C   0  0  0  0  0  0  0  0  0  0  0  0
    2.3580    2.9170   18.5970 C   0  0  0  0  0  0  0  0  0  0  0  0
    3.3230    2.2640   17.8480 C   0  0  0  0  0  0  0  0  0  0  0  0
    4.3910    3.0110   17.3460 C   0  0  0  0  0  0  0  0  0  0  0  0
    4.4740    4.3920   17.5870 C   0  0  0  0  0  0  0  0  0  0  0  0
    3.4900    5.0450   18.3320 C   0  0  0  0  0  0  0  0  0  0  0  0
    2.4380    4.2950   18.8380 C   0  0  0  0  0  0  0  0  0  0  0  0
    0.5020    5.1380   18.9000 H   0  0  0  0  0  0  0  0  0  0  0  0
   -0.3680    3.4560   20.3720 H   0  0  0  0  0  0  0  0  0  0  0  0
    1.1700    3.2030   21.1750 H   0  0  0  0  0  0  0  0  0  0  0  0
    1.3080    1.3850   19.7090 H   0  0  0  0  0  0  0  0  0  0  0  0
    0.3510    2.2030   18.4340 H   0  0  0  0  0  0  0  0  0  0  0  0
    3.2570    1.1970   17.6570 H   0  0  0  0  0  0  0  0  0  0  0  0
    5.1660    2.5200   16.7630 H   0  0  0  0  0  0  0  0  0  0  0  0
    5.3130    4.9570   17.1910 H   0  0  0  0  0  0  0  0  0  0  0  0
    3.5550    6.1130   18.5160 H   0  0  0  0  0  0  0  0  0  0  0  0
  1 14  1  0  0  0  0
  1  2  1  0  0  0  0
  2  7  1  0  0  0  0
  3  2  2  0  0  0  0
  3  8  1  0  0  0  0
  4  3  1  0  0  0  0
  5  6  1  0  0  0  0
  5  4  2  0  0  0  0
  6  1  2  0  0  0  0
  9  6  1  0  0  0  0
 10 11  1  0  0  0  0
 11 16  1  0  0  0  0
 11 12  2  0  0  0  0
 12 17  1  0  0  0  0
 13 12  1  0  0  0  0
 13 18  1  0  0  0  0
 14 13  2  0  0  0  0
 15 10  2  0  0  0  0
 15 14  1  0  0  0  0
 19 15  1  0  0  0  0
 20 10  1  0  0  0  0
 21 20  1  0  0  0  0
 22 21  1  0  0  0  0
 23 21  1  0  0  0  0
 24 21  1  0  0  0  0
 25  5  1  0  0  0  0
 26 29  1  0  0  0  0
 26 25  1  0  0  0  0
 27 25  2  0  0  0  0
 28 26  1  0  0  0  0
 30 33  1  0  0  0  0
 30  4  1  0  0  0  0
 30 32  1  0  0  0  0
 31 30  1  0  0  0  0
 33 37  1  0  0  0  0
 34 36  1  0  0  0  0
 34 33  1  0  0  0  0
 35 34  2  0  0  0  0
 36 38  1  0  0  0  0
 39 48  1  6  0  0  0
 39 40  1  0  0  0  0
 39 36  1  0  0  0  0
 40 49  1  0  0  0  0
 40 50  1  0  0  0  0
 41 51  1  0  0  0  0
 41 40  1  0  0  0  0
 42 47  1  0  0  0  0
 42 41  1  0  0  0  0
 43 42  2  0  0  0  0
 44 45  2  0  0  0  0
 44 43  1  0  0  0  0
 45 46  1  0  0  0  0
 46 56  1  0  0  0  0
 46 47  2  0  0  0  0
 47 39  1  0  0  0  0
 52 41  1  0  0  0  0
 53 43  1  0  0  0  0
 54 44  1  0  0  0  0
 55 45  1  0  0  0  0
M  END
>  <MODEL>
30

>  <REMARK>
 VINA RESULT:    -6.024      3.346     10.995
 INTER + INTRA:          -9.009
 INTER:                  -8.692
 INTRA:                  -0.316
 UNBOUND:                -0.696
  Name = 
  7 active torsions:
  status: ('A' for Active; 'I' for Inactive)
    1  A    between atoms: C_1  and  O_2
    2  A    between atoms: O_2  and  C_3
    3  A    between atoms: C_7  and  C_8
    4  A    between atoms: C_11  and  C_12
    5  A    between atoms: C_12  and  N_13
    6  A    between atoms: N_16  and  C_17
    7  A    between atoms: C_26  and  C_27
                            x       y       z     vdW  Elec       q    Type
                         _______ _______ _______ _____ _____    ______ ____

>  <TORSDO>
F 7

$$$$
