=
 OpenBabel07192307433D

 49 52  0  0  1  0  0  0  0  0999 V2000
   -0.1450   10.8820   19.5500 C   0  0  0  0  0  0  0  0  0  0  0  0
   -0.1360   11.0910   20.9350 C   0  0  0  0  0  0  0  0  0  0  0  0
    0.5390   10.2070   21.7750 C   0  0  0  0  0  0  0  0  0  0  0  0
    1.2090    9.1000   21.2480 C   0  0  0  0  0  0  0  0  0  0  0  0
    1.2080    8.8640   19.8740 C   0  0  0  0  0  0  0  0  0  0  0  0
    0.5290    9.7600   19.0350 C   0  0  0  0  0  0  0  0  0  0  0  0
   -0.6530   11.9390   21.3770 H   0  0  0  0  0  0  0  0  0  0  0  0
    0.5470   10.3760   22.8500 H   0  0  0  0  0  0  0  0  0  0  0  0
    1.7250    8.4440   21.9420 H   0  0  0  0  0  0  0  0  0  0  0  0
    0.5150    9.5900   17.9610 H   0  0  0  0  0  0  0  0  0  0  0  0
    1.8570    7.7730   19.2580 N   0  0  0  0  0  0  0  0  0  0  0  0
    2.0310    6.5030   19.7700 C   0  0  0  0  0  0  0  0  0  0  0  0
    1.6110    6.0790   20.8400 O   0  0  0  0  0  0  0  0  0  0  0  0
    2.1900    7.9450   18.3190 H   0  0  0  0  0  0  0  0  0  0  0  0
    2.7900    5.5970   18.8700 C   0  0  0  0  0  0  0  0  0  0  0  0
    2.7730    4.2470   18.7700 C   0  0  0  0  0  0  0  0  0  0  0  0
    3.6680    3.8090   17.6930 C   0  0  0  0  0  0  0  0  0  0  0  0
    3.9050    2.1860   17.2850 Cl  0  0  0  0  0  0  0  0  0  0  0  0
    4.2170    4.8860   17.1280 C   0  0  0  0  0  0  0  0  0  0  0  0
    5.1140    5.3280   16.1020 C   0  0  0  0  0  0  0  0  0  0  0  0
    5.1120    6.6790   16.2000 C   0  0  0  0  0  0  0  0  0  0  0  0
    4.2220    7.1190   17.2800 C   0  0  0  0  0  0  0  0  0  0  0  0
    3.6880    6.0280   17.8370 C   0  0  0  0  0  0  0  0  0  0  0  0
    2.1820    3.5540   19.3480 H   0  0  0  0  0  0  0  0  0  0  0  0
    5.6760    7.3630   15.5810 H   0  0  0  0  0  0  0  0  0  0  0  0
    4.0410    8.1460   17.5600 H   0  0  0  0  0  0  0  0  0  0  0  0
    5.8460    4.4390   15.1730 C   0  0  0  0  0  0  0  0  0  0  0  0
    6.2900    3.3120   15.7870 F   0  0  0  0  0  0  0  0  0  0  0  0
    6.9300    5.0500   14.6300 F   0  0  0  0  0  0  0  0  0  0  0  0
    5.0680    4.0350   14.1350 F   0  0  0  0  0  0  0  0  0  0  0  0
   -0.8850   11.8130   18.5990 C   0  0  2  0  0  0  0  0  0  0  0  0
   -0.4700   11.6660   17.5920 H   0  0  0  0  0  0  0  0  0  0  0  0
   -0.6430   13.2880   18.9530 C   0  0  0  0  0  0  0  0  0  0  0  0
    0.0240   13.3800   19.8160 H   0  0  0  0  0  0  0  0  0  0  0  0
   -0.1870   13.8400   18.1240 H   0  0  0  0  0  0  0  0  0  0  0  0
   -1.5840   13.7870   19.2110 H   0  0  0  0  0  0  0  0  0  0  0  0
   -2.3860   11.4600   18.5700 C   0  0  0  0  0  0  0  0  0  0  0  0
   -2.9890   12.3330   18.8440 H   0  0  0  0  0  0  0  0  0  0  0  0
   -2.5990   10.6950   19.3290 H   0  0  0  0  0  0  0  0  0  0  0  0
   -2.8060   10.9070   17.2500 C   0  0  0  0  0  0  0  0  0  0  0  0
   -2.0940   10.1050   16.4840 N   0  0  0  0  0  0  0  0  0  0  0  0
   -2.8240    9.8270   15.3550 N   0  0  0  0  0  0  0  0  0  0  0  0
   -3.9690   10.4590   15.4560 C   0  0  0  0  0  0  0  0  0  0  0  0
   -4.0040   11.1480   16.6290 N   0  0  0  0  0  0  0  0  0  0  0  0
   -4.7700   10.4450   14.7320 H   0  0  0  0  0  0  0  0  0  0  0  0
   -5.0900   11.9630   17.1000 C   0  0  0  0  0  0  0  0  0  0  0  0
   -4.8200   12.3750   18.0750 H   0  0  0  0  0  0  0  0  0  0  0  0
   -5.9930   11.3530   17.1940 H   0  0  0  0  0  0  0  0  0  0  0  0
   -5.2650   12.7650   16.3770 H   0  0  0  0  0  0  0  0  0  0  0  0
  1  2  1  0  0  0  0
  2  7  1  0  0  0  0
  2  3  2  0  0  0  0
  3  8  1  0  0  0  0
  4  3  1  0  0  0  0
  4  9  1  0  0  0  0
  5  4  2  0  0  0  0
  6  1  2  0  0  0  0
  6  5  1  0  0  0  0
 10  6  1  0  0  0  0
 11 12  1  0  0  0  0
 11  5  1  0  0  0  0
 12 13  2  0  0  0  0
 14 11  1  0  0  0  0
 15 12  1  0  0  0  0
 16 15  1  0  0  0  0
 16 24  1  0  0  0  0
 17 16  2  0  0  0  0
 18 17  1  0  0  0  0
 19 17  1  0  0  0  0
 19 23  1  0  0  0  0
 20 21  1  0  0  0  0
 20 19  2  0  0  0  0
 21 22  2  0  0  0  0
 22 26  1  0  0  0  0
 22 23  1  0  0  0  0
 23 15  2  0  0  0  0
 25 21  1  0  0  0  0
 27 28  1  0  0  0  0
 27 20  1  0  0  0  0
 29 27  1  0  0  0  0
 30 27  1  0  0  0  0
 31 32  1  6  0  0  0
 31 33  1  0  0  0  0
 31  1  1  0  0  0  0
 33 36  1  0  0  0  0
 33 34  1  0  0  0  0
 35 33  1  0  0  0  0
 37 31  1  0  0  0  0
 37 38  1  0  0  0  0
 37 39  1  0  0  0  0
 40 37  1  0  0  0  0
 41 40  2  0  0  0  0
 42 43  2  0  0  0  0
 42 41  1  0  0  0  0
 43 44  1  0  0  0  0
 44 46  1  0  0  0  0
 44 40  1  0  0  0  0
 45 43  1  0  0  0  0
 46 48  1  0  0  0  0
 46 47  1  0  0  0  0
 49 46  1  0  0  0  0
M  END
>  <MODEL>
1

>  <REMARK>
 VINA RESULT:    -8.784      0.000      0.000
 INTER + INTRA:         -12.622
 INTER:                 -11.936
 INTRA:                  -0.686
 UNBOUND:                -0.243
  Name = 
  8 active torsions:
  status: ('A' for Active; 'I' for Inactive)
    1  A    between atoms: C_1  and  C_2
    2  A    between atoms: C_2  and  C_3
    3  A    between atoms: C_2  and  C_10
    4  A    between atoms: C_3  and  C_4
    5  A    between atoms: N_8  and  C_9
    6  A    between atoms: C_14  and  N_15
    7  A    between atoms: C_16  and  C_18
    8  A    between atoms: C_23  and  C_24
                            x       y       z     vdW  Elec       q    Type
                         _______ _______ _______ _____ _____    ______ ____

>  <TORSDO>
F 8

$$$$
=
 OpenBabel07192307433D

 49 52  0  0  1  0  0  0  0  0999 V2000
   -0.7080   11.2970   20.2210 C   0  0  0  0  0  0  0  0  0  0  0  0
   -0.9250   11.8500   21.4890 C   0  0  0  0  0  0  0  0  0  0  0  0
   -0.6090   11.1240   22.6360 C   0  0  0  0  0  0  0  0  0  0  0  0
   -0.0790    9.8350   22.5360 C   0  0  0  0  0  0  0  0  0  0  0  0
    0.1370    9.2570   21.2850 C   0  0  0  0  0  0  0  0  0  0  0  0
   -0.1800    9.9960   20.1360 C   0  0  0  0  0  0  0  0  0  0  0  0
   -1.3400   12.8480   21.6010 H   0  0  0  0  0  0  0  0  0  0  0  0
   -0.7740   11.5600   23.6190 H   0  0  0  0  0  0  0  0  0  0  0  0
    0.1550    9.3120   23.4570 H   0  0  0  0  0  0  0  0  0  0  0  0
   -0.0210    9.5600   19.1520 H   0  0  0  0  0  0  0  0  0  0  0  0
    0.6660    7.9630   21.0920 N   0  0  0  0  0  0  0  0  0  0  0  0
    1.5980    7.5700   20.1520 C   0  0  0  0  0  0  0  0  0  0  0  0
    2.1720    8.2890   19.3420 O   0  0  0  0  0  0  0  0  0  0  0  0
    0.3470    7.2650   21.7500 H   0  0  0  0  0  0  0  0  0  0  0  0
    1.9150    6.1210   20.1990 C   0  0  0  0  0  0  0  0  0  0  0  0
    1.6060    5.1860   21.1290 C   0  0  0  0  0  0  0  0  0  0  0  0
    2.1030    3.8710   20.7090 C   0  0  0  0  0  0  0  0  0  0  0  0
    1.9040    2.4660   21.6280 Cl  0  0  0  0  0  0  0  0  0  0  0  0
    2.7000    3.9990   19.5220 C   0  0  0  0  0  0  0  0  0  0  0  0
    3.3860    3.2850   18.4870 C   0  0  0  0  0  0  0  0  0  0  0  0
    3.6780    4.2250   17.5560 C   0  0  0  0  0  0  0  0  0  0  0  0
    3.1880    5.5410   17.9770 C   0  0  0  0  0  0  0  0  0  0  0  0
    2.6000    5.3950   19.1670 C   0  0  0  0  0  0  0  0  0  0  0  0
    1.0490    5.3290   22.0420 H   0  0  0  0  0  0  0  0  0  0  0  0
    4.1980    4.0560   16.6220 H   0  0  0  0  0  0  0  0  0  0  0  0
    3.2890    6.4550   17.4100 H   0  0  0  0  0  0  0  0  0  0  0  0
    3.6760    1.8340   18.5030 C   0  0  0  0  0  0  0  0  0  0  0  0
    2.5580    1.0920   18.7040 F   0  0  0  0  0  0  0  0  0  0  0  0
    4.5580    1.5000   19.4800 F   0  0  0  0  0  0  0  0  0  0  0  0
    4.2180    1.4100   17.3310 F   0  0  0  0  0  0  0  0  0  0  0  0
   -1.0560   12.0490   18.9420 C   0  0  2  0  0  0  0  0  0  0  0  0
   -0.4790   11.6030   18.1210 H   0  0  0  0  0  0  0  0  0  0  0  0
   -0.6240   13.5210   19.0210 C   0  0  0  0  0  0  0  0  0  0  0  0
   -0.4440   13.8220   20.0580 H   0  0  0  0  0  0  0  0  0  0  0  0
    0.2960   13.7090   18.4570 H   0  0  0  0  0  0  0  0  0  0  0  0
   -1.4040   14.1790   18.6190 H   0  0  0  0  0  0  0  0  0  0  0  0
   -2.5580   11.8980   18.6290 C   0  0  0  0  0  0  0  0  0  0  0  0
   -3.0450   12.8800   18.6110 H   0  0  0  0  0  0  0  0  0  0  0  0
   -3.0480   11.3330   19.4350 H   0  0  0  0  0  0  0  0  0  0  0  0
   -2.7940   11.1550   17.3580 C   0  0  0  0  0  0  0  0  0  0  0  0
   -1.9390   10.3480   16.7620 N   0  0  0  0  0  0  0  0  0  0  0  0
   -2.5260    9.8670   15.6180 N   0  0  0  0  0  0  0  0  0  0  0  0
   -3.7290   10.3840   15.5400 C   0  0  0  0  0  0  0  0  0  0  0  0
   -3.9420   11.1970   16.6100 N   0  0  0  0  0  0  0  0  0  0  0  0
   -4.4500   10.2030   14.7570 H   0  0  0  0  0  0  0  0  0  0  0  0
   -5.1400   11.9440   16.8800 C   0  0  0  0  0  0  0  0  0  0  0  0
   -5.6190   11.5280   17.7680 H   0  0  0  0  0  0  0  0  0  0  0  0
   -5.8190   11.8700   16.0260 H   0  0  0  0  0  0  0  0  0  0  0  0
   -4.8700   12.9920   17.0430 H   0  0  0  0  0  0  0  0  0  0  0  0
  1  2  1  0  0  0  0
  2  7  1  0  0  0  0
  2  3  2  0  0  0  0
  3  8  1  0  0  0  0
  4  3  1  0  0  0  0
  4  9  1  0  0  0  0
  5  4  2  0  0  0  0
  6  1  2  0  0  0  0
  6  5  1  0  0  0  0
 10  6  1  0  0  0  0
 11  5  1  0  0  0  0
 11 14  1  0  0  0  0
 12 15  1  0  0  0  0
 12 11  1  0  0  0  0
 13 12  2  0  0  0  0
 15 16  1  0  0  0  0
 16 24  1  0  0  0  0
 17 16  2  0  0  0  0
 17 18  1  0  0  0  0
 19 17  1  0  0  0  0
 20 27  1  0  0  0  0
 20 19  2  0  0  0  0
 21 22  2  0  0  0  0
 21 20  1  0  0  0  0
 22 23  1  0  0  0  0
 23 19  1  0  0  0  0
 23 15  2  0  0  0  0
 25 21  1  0  0  0  0
 26 22  1  0  0  0  0
 27 28  1  0  0  0  0
 27 29  1  0  0  0  0
 30 27  1  0  0  0  0
 31 32  1  6  0  0  0
 31 33  1  0  0  0  0
 31  1  1  0  0  0  0
 33 34  1  0  0  0  0
 35 33  1  0  0  0  0
 36 33  1  0  0  0  0
 37 31  1  0  0  0  0
 37 39  1  0  0  0  0
 38 37  1  0  0  0  0
 40 37  1  0  0  0  0
 41 40  2  0  0  0  0
 42 41  1  0  0  0  0
 43 42  2  0  0  0  0
 43 44  1  0  0  0  0
 44 46  1  0  0  0  0
 44 40  1  0  0  0  0
 45 43  1  0  0  0  0
 46 49  1  0  0  0  0
 46 47  1  0  0  0  0
 48 46  1  0  0  0  0
M  END
>  <MODEL>
2

>  <REMARK>
 VINA RESULT:    -8.629      2.054      2.680
 INTER + INTRA:         -12.403
 INTER:                 -11.530
 INTRA:                  -0.873
 UNBOUND:                -0.243
  Name = 
  8 active torsions:
  status: ('A' for Active; 'I' for Inactive)
    1  A    between atoms: C_1  and  C_2
    2  A    between atoms: C_2  and  C_3
    3  A    between atoms: C_2  and  C_10
    4  A    between atoms: C_3  and  C_4
    5  A    between atoms: N_8  and  C_9
    6  A    between atoms: C_14  and  N_15
    7  A    between atoms: C_16  and  C_18
    8  A    between atoms: C_23  and  C_24
                            x       y       z     vdW  Elec       q    Type
                         _______ _______ _______ _____ _____    ______ ____

>  <TORSDO>
F 8

$$$$
=
 OpenBabel07192307433D

 49 52  0  0  1  0  0  0  0  0999 V2000
   -0.4420   11.9460   18.6320 C   0  0  0  0  0  0  0  0  0  0  0  0
    0.4340   13.0380   18.5920 C   0  0  0  0  0  0  0  0  0  0  0  0
    1.8030   12.8360   18.4310 C   0  0  0  0  0  0  0  0  0  0  0  0
    2.3200   11.5430   18.3130 C   0  0  0  0  0  0  0  0  0  0  0  0
    1.4710   10.4380   18.3600 C   0  0  0  0  0  0  0  0  0  0  0  0
    0.0930   10.6500   18.5190 C   0  0  0  0  0  0  0  0  0  0  0  0
    0.0640   14.0560   18.6860 H   0  0  0  0  0  0  0  0  0  0  0  0
    2.4790   13.6880   18.3950 H   0  0  0  0  0  0  0  0  0  0  0  0
    3.3920   11.4360   18.1840 H   0  0  0  0  0  0  0  0  0  0  0  0
   -0.5840    9.8000   18.5610 H   0  0  0  0  0  0  0  0  0  0  0  0
    1.9060    9.1000   18.2510 N   0  0  0  0  0  0  0  0  0  0  0  0
    2.0220    8.1710   19.2650 C   0  0  0  0  0  0  0  0  0  0  0  0
    1.7220    8.3290   20.4430 O   0  0  0  0  0  0  0  0  0  0  0  0
    2.1130    8.7900   17.3110 H   0  0  0  0  0  0  0  0  0  0  0  0
    2.5420    6.8560   18.8120 C   0  0  0  0  0  0  0  0  0  0  0  0
    3.4720    6.5590   17.8730 C   0  0  0  0  0  0  0  0  0  0  0  0
    3.6840    5.1090   17.8140 C   0  0  0  0  0  0  0  0  0  0  0  0
    4.7720    4.3720   16.7490 Cl  0  0  0  0  0  0  0  0  0  0  0  0
    2.8990    4.5240   18.7200 C   0  0  0  0  0  0  0  0  0  0  0  0
    2.5170    3.2630   19.2820 C   0  0  0  0  0  0  0  0  0  0  0  0
    1.5990    3.5720   20.2290 C   0  0  0  0  0  0  0  0  0  0  0  0
    1.3810    5.0210   20.2860 C   0  0  0  0  0  0  0  0  0  0  0  0
    2.1690    5.5880   19.3690 C   0  0  0  0  0  0  0  0  0  0  0  0
    4.0290    7.2510   17.2600 H   0  0  0  0  0  0  0  0  0  0  0  0
    1.0830    2.8680   20.8690 H   0  0  0  0  0  0  0  0  0  0  0  0
    0.7020    5.5240   20.9600 H   0  0  0  0  0  0  0  0  0  0  0  0
    3.0550    1.9490   18.8660 C   0  0  0  0  0  0  0  0  0  0  0  0
    2.3050    0.9180   19.3340 F   0  0  0  0  0  0  0  0  0  0  0  0
    4.3230    1.7530   19.3100 F   0  0  0  0  0  0  0  0  0  0  0  0
    3.0930    1.8190   17.5140 F   0  0  0  0  0  0  0  0  0  0  0  0
   -1.9430   12.1220   18.8250 C   0  0  2  0  0  0  0  0  0  0  0  0
   -2.2910   12.8720   18.1010 H   0  0  0  0  0  0  0  0  0  0  0  0
   -2.2690   12.6840   20.2170 C   0  0  0  0  0  0  0  0  0  0  0  0
   -2.2090   13.7770   20.2230 H   0  0  0  0  0  0  0  0  0  0  0  0
   -3.2770   12.4060   20.5440 H   0  0  0  0  0  0  0  0  0  0  0  0
   -1.5590   12.3110   20.9640 H   0  0  0  0  0  0  0  0  0  0  0  0
   -2.6740   10.7930   18.5460 C   0  0  0  0  0  0  0  0  0  0  0  0
   -3.5830   10.7230   19.1540 H   0  0  0  0  0  0  0  0  0  0  0  0
   -2.0380    9.9520   18.8550 H   0  0  0  0  0  0  0  0  0  0  0  0
   -2.9780   10.6130   17.0980 C   0  0  0  0  0  0  0  0  0  0  0  0
   -2.2450    9.9430   16.2300 N   0  0  0  0  0  0  0  0  0  0  0  0
   -2.8570   10.0170   15.0030 N   0  0  0  0  0  0  0  0  0  0  0  0
   -3.9530   10.7240   15.1460 C   0  0  0  0  0  0  0  0  0  0  0  0
   -4.0710   11.1170   16.4430 N   0  0  0  0  0  0  0  0  0  0  0  0
   -4.6620   10.9640   14.3680 H   0  0  0  0  0  0  0  0  0  0  0  0
   -5.1380   11.9080   16.9930 C   0  0  0  0  0  0  0  0  0  0  0  0
   -4.8380   12.2570   17.9840 H   0  0  0  0  0  0  0  0  0  0  0  0
   -6.0420   11.2990   17.0760 H   0  0  0  0  0  0  0  0  0  0  0  0
   -5.3260   12.7540   16.3270 H   0  0  0  0  0  0  0  0  0  0  0  0
  1 31  1  0  0  0  0
  2  1  1  0  0  0  0
  2  7  1  0  0  0  0
  3  2  2  0  0  0  0
  4  5  2  0  0  0  0
  4  3  1  0  0  0  0
  5  6  1  0  0  0  0
  6 10  1  0  0  0  0
  6  1  2  0  0  0  0
  8  3  1  0  0  0  0
  9  4  1  0  0  0  0
 11  5  1  0  0  0  0
 11 12  1  0  0  0  0
 12 13  2  0  0  0  0
 14 11  1  0  0  0  0
 15 12  1  0  0  0  0
 15 23  1  0  0  0  0
 16 15  2  0  0  0  0
 17 16  1  0  0  0  0
 17 19  2  0  0  0  0
 18 17  1  0  0  0  0
 19 20  1  0  0  0  0
 19 23  1  0  0  0  0
 20 21  2  0  0  0  0
 21 22  1  0  0  0  0
 21 25  1  0  0  0  0
 22 26  1  0  0  0  0
 23 22  2  0  0  0  0
 24 16  1  0  0  0  0
 27 20  1  0  0  0  0
 27 29  1  0  0  0  0
 27 28  1  0  0  0  0
 30 27  1  0  0  0  0
 31 32  1  6  0  0  0
 31 33  1  0  0  0  0
 33 34  1  0  0  0  0
 33 35  1  0  0  0  0
 33 36  1  0  0  0  0
 37 31  1  0  0  0  0
 37 39  1  0  0  0  0
 37 38  1  0  0  0  0
 40 37  1  0  0  0  0
 41 40  2  0  0  0  0
 42 43  2  0  0  0  0
 42 41  1  0  0  0  0
 43 44  1  0  0  0  0
 44 46  1  0  0  0  0
 44 40  1  0  0  0  0
 45 43  1  0  0  0  0
 46 48  1  0  0  0  0
 46 47  1  0  0  0  0
 49 46  1  0  0  0  0
M  END
>  <MODEL>
3

>  <REMARK>
 VINA RESULT:    -8.620      2.130      3.105
 INTER + INTRA:         -12.390
 INTER:                 -11.461
 INTRA:                  -0.929
 UNBOUND:                -0.243
  Name = 
  8 active torsions:
  status: ('A' for Active; 'I' for Inactive)
    1  A    between atoms: C_1  and  C_2
    2  A    between atoms: C_2  and  C_3
    3  A    between atoms: C_2  and  C_10
    4  A    between atoms: C_3  and  C_4
    5  A    between atoms: N_8  and  C_9
    6  A    between atoms: C_14  and  N_15
    7  A    between atoms: C_16  and  C_18
    8  A    between atoms: C_23  and  C_24
                            x       y       z     vdW  Elec       q    Type
                         _______ _______ _______ _____ _____    ______ ____

>  <TORSDO>
F 8

$$$$
=
 OpenBabel07192307433D

 49 52  0  0  1  0  0  0  0  0999 V2000
    4.8070    4.3660   17.0300 C   0  0  0  0  0  0  0  0  0  0  0  0
    4.0410    3.1940   17.0160 C   0  0  0  0  0  0  0  0  0  0  0  0
    2.7220    3.2090   17.4670 C   0  0  0  0  0  0  0  0  0  0  0  0
    2.1510    4.3910   17.9450 C   0  0  0  0  0  0  0  0  0  0  0  0
    2.8940    5.5700   17.9800 C   0  0  0  0  0  0  0  0  0  0  0  0
    4.2200    5.5470   17.5210 C   0  0  0  0  0  0  0  0  0  0  0  0
    4.4580    2.2570   16.6550 H   0  0  0  0  0  0  0  0  0  0  0  0
    2.1300    2.2970   17.4480 H   0  0  0  0  0  0  0  0  0  0  0  0
    1.1200    4.3540   18.2810 H   0  0  0  0  0  0  0  0  0  0  0  0
    4.8160    6.4570   17.5440 H   0  0  0  0  0  0  0  0  0  0  0  0
    2.3980    6.8060   18.4470 N   0  0  0  0  0  0  0  0  0  0  0  0
    1.9660    7.1070   19.7230 C   0  0  0  0  0  0  0  0  0  0  0  0
    1.9790    6.3640   20.6980 O   0  0  0  0  0  0  0  0  0  0  0  0
    2.4050    7.5560   17.7700 H   0  0  0  0  0  0  0  0  0  0  0  0
    1.4740    8.5000   19.8710 C   0  0  0  0  0  0  0  0  0  0  0  0
    1.4550    9.5220   18.9830 C   0  0  0  0  0  0  0  0  0  0  0  0
    0.8230   10.7020   19.5820 C   0  0  0  0  0  0  0  0  0  0  0  0
    0.6320   12.1690   18.7640 Cl  0  0  0  0  0  0  0  0  0  0  0  0
    0.4440   10.3990   20.8250 C   0  0  0  0  0  0  0  0  0  0  0  0
   -0.1930   10.9130   22.0000 C   0  0  0  0  0  0  0  0  0  0  0  0
   -0.1830    9.8810   22.8780 C   0  0  0  0  0  0  0  0  0  0  0  0
    0.4540    8.7020   22.2820 C   0  0  0  0  0  0  0  0  0  0  0  0
    0.8320    9.0250   21.0430 C   0  0  0  0  0  0  0  0  0  0  0  0
    1.8080    9.5090   17.9630 H   0  0  0  0  0  0  0  0  0  0  0  0
   -0.5840    9.8950   23.8820 H   0  0  0  0  0  0  0  0  0  0  0  0
    0.5830    7.7480   22.7730 H   0  0  0  0  0  0  0  0  0  0  0  0
   -0.7220   12.2870   22.1490 C   0  0  0  0  0  0  0  0  0  0  0  0
   -1.7870   12.5150   21.3380 F   0  0  0  0  0  0  0  0  0  0  0  0
    0.2110   13.2280   21.8560 F   0  0  0  0  0  0  0  0  0  0  0  0
   -1.1410   12.5380   23.4170 F   0  0  0  0  0  0  0  0  0  0  0  0
    6.2570    4.3890   16.5630 C   0  0  2  0  0  0  0  0  0  0  0  0
    6.5250    3.3730   16.2460 H   0  0  0  0  0  0  0  0  0  0  0  0
    7.2120    4.7490   17.7110 C   0  0  0  0  0  0  0  0  0  0  0  0
    7.6680    5.7310   17.5480 H   0  0  0  0  0  0  0  0  0  0  0  0
    6.6980    4.7800   18.6770 H   0  0  0  0  0  0  0  0  0  0  0  0
    8.0250    4.0180   17.7870 H   0  0  0  0  0  0  0  0  0  0  0  0
    6.4110    5.3380   15.3570 C   0  0  0  0  0  0  0  0  0  0  0  0
    7.3170    5.9450   15.4630 H   0  0  0  0  0  0  0  0  0  0  0  0
    5.5730    6.0480   15.3370 H   0  0  0  0  0  0  0  0  0  0  0  0
    6.4020    4.6030   14.0600 C   0  0  0  0  0  0  0  0  0  0  0  0
    5.5310    3.6820   13.6980 N   0  0  0  0  0  0  0  0  0  0  0  0
    5.8670    3.2420   12.4410 N   0  0  0  0  0  0  0  0  0  0  0  0
    6.9310    3.9070   12.0580 C   0  0  0  0  0  0  0  0  0  0  0  0
    7.3020    4.7720   13.0400 N   0  0  0  0  0  0  0  0  0  0  0  0
    7.4450    3.7970   11.1150 H   0  0  0  0  0  0  0  0  0  0  0  0
    8.4210    5.6730   12.9970 C   0  0  0  0  0  0  0  0  0  0  0  0
    9.1230    5.3970   13.7870 H   0  0  0  0  0  0  0  0  0  0  0  0
    8.0750    6.6980   13.1540 H   0  0  0  0  0  0  0  0  0  0  0  0
    8.8960    5.5940   12.0140 H   0  0  0  0  0  0  0  0  0  0  0  0
  1  6  1  0  0  0  0
  2  1  2  0  0  0  0
  2  3  1  0  0  0  0
  3  4  2  0  0  0  0
  4  5  1  0  0  0  0
  4  9  1  0  0  0  0
  5 11  1  0  0  0  0
  6 10  1  0  0  0  0
  6  5  2  0  0  0  0
  7  2  1  0  0  0  0
  8  3  1  0  0  0  0
 11 12  1  0  0  0  0
 12 15  1  0  0  0  0
 12 13  2  0  0  0  0
 14 11  1  0  0  0  0
 15 23  1  0  0  0  0
 16 17  1  0  0  0  0
 16 15  2  0  0  0  0
 17 19  2  0  0  0  0
 18 17  1  0  0  0  0
 19 23  1  0  0  0  0
 19 20  1  0  0  0  0
 20 27  1  0  0  0  0
 20 21  2  0  0  0  0
 21 25  1  0  0  0  0
 22 26  1  0  0  0  0
 22 21  1  0  0  0  0
 23 22  2  0  0  0  0
 24 16  1  0  0  0  0
 27 30  1  0  0  0  0
 28 27  1  0  0  0  0
 29 27  1  0  0  0  0
 31 32  1  6  0  0  0
 31  1  1  0  0  0  0
 31 33  1  0  0  0  0
 33 36  1  0  0  0  0
 33 35  1  0  0  0  0
 34 33  1  0  0  0  0
 37 38  1  0  0  0  0
 37 31  1  0  0  0  0
 39 37  1  0  0  0  0
 40 37  1  0  0  0  0
 41 40  2  0  0  0  0
 42 41  1  0  0  0  0
 43 42  2  0  0  0  0
 43 44  1  0  0  0  0
 44 40  1  0  0  0  0
 45 43  1  0  0  0  0
 46 44  1  0  0  0  0
 46 48  1  0  0  0  0
 46 47  1  0  0  0  0
 49 46  1  0  0  0  0
M  END
>  <MODEL>
4

>  <REMARK>
 VINA RESULT:    -8.597      5.452      9.630
 INTER + INTRA:         -12.358
 INTER:                 -11.382
 INTRA:                  -0.976
 UNBOUND:                -0.243
  Name = 
  8 active torsions:
  status: ('A' for Active; 'I' for Inactive)
    1  A    between atoms: C_1  and  C_2
    2  A    between atoms: C_2  and  C_3
    3  A    between atoms: C_2  and  C_10
    4  A    between atoms: C_3  and  C_4
    5  A    between atoms: N_8  and  C_9
    6  A    between atoms: C_14  and  N_15
    7  A    between atoms: C_16  and  C_18
    8  A    between atoms: C_23  and  C_24
                            x       y       z     vdW  Elec       q    Type
                         _______ _______ _______ _____ _____    ______ ____

>  <TORSDO>
F 8

$$$$
=
 OpenBabel07192307433D

 49 52  0  0  1  0  0  0  0  0999 V2000
    4.4410    4.8400   16.8410 C   0  0  0  0  0  0  0  0  0  0  0  0
    3.7750    3.6160   16.9850 C   0  0  0  0  0  0  0  0  0  0  0  0
    2.5460    3.5560   17.6410 C   0  0  0  0  0  0  0  0  0  0  0  0
    1.9670    4.7130   18.1680 C   0  0  0  0  0  0  0  0  0  0  0  0
    2.6140    5.9430   18.0480 C   0  0  0  0  0  0  0  0  0  0  0  0
    3.8480    5.9950   17.3830 C   0  0  0  0  0  0  0  0  0  0  0  0
    4.2010    2.6970   16.5910 H   0  0  0  0  0  0  0  0  0  0  0  0
    2.0300    2.6050   17.7450 H   0  0  0  0  0  0  0  0  0  0  0  0
    1.0080    4.6180   18.6650 H   0  0  0  0  0  0  0  0  0  0  0  0
    4.3690    6.9450   17.2830 H   0  0  0  0  0  0  0  0  0  0  0  0
    2.1040    7.1590   18.5510 N   0  0  0  0  0  0  0  0  0  0  0  0
    1.7510    7.4450   19.8540 C   0  0  0  0  0  0  0  0  0  0  0  0
    1.8620    6.7040   20.8240 O   0  0  0  0  0  0  0  0  0  0  0  0
    2.0330    7.9080   17.8750 H   0  0  0  0  0  0  0  0  0  0  0  0
    1.2160    8.8170   20.0380 C   0  0  0  0  0  0  0  0  0  0  0  0
    1.2210    9.8790   19.1990 C   0  0  0  0  0  0  0  0  0  0  0  0
    0.5260   11.0150   19.8150 C   0  0  0  0  0  0  0  0  0  0  0  0
    0.3440   12.5150   19.0570 Cl  0  0  0  0  0  0  0  0  0  0  0  0
    0.0870   10.6450   21.0200 C   0  0  0  0  0  0  0  0  0  0  0  0
   -0.6280   11.0880   22.1790 C   0  0  0  0  0  0  0  0  0  0  0  0
   -0.6400   10.0150   23.0070 C   0  0  0  0  0  0  0  0  0  0  0  0
    0.0590    8.8800   22.3950 C   0  0  0  0  0  0  0  0  0  0  0  0
    0.4970    9.2710   21.1950 C   0  0  0  0  0  0  0  0  0  0  0  0
    1.6300    9.9240   18.2010 H   0  0  0  0  0  0  0  0  0  0  0  0
   -1.0970    9.9720   23.9870 H   0  0  0  0  0  0  0  0  0  0  0  0
    0.1850    7.9070   22.8470 H   0  0  0  0  0  0  0  0  0  0  0  0
   -1.1990   12.4400   22.3610 C   0  0  0  0  0  0  0  0  0  0  0  0
   -1.9830   12.8090   21.3150 F   0  0  0  0  0  0  0  0  0  0  0  0
   -0.2370   13.3880   22.4920 F   0  0  0  0  0  0  0  0  0  0  0  0
   -1.9760   12.5200   23.4740 F   0  0  0  0  0  0  0  0  0  0  0  0
    5.7920    4.9460   16.1480 C   0  0  2  0  0  0  0  0  0  0  0  0
    5.8540    5.9370   15.6780 H   0  0  0  0  0  0  0  0  0  0  0  0
    5.9230    3.9220   15.0110 C   0  0  0  0  0  0  0  0  0  0  0  0
    5.2200    4.1420   14.2010 H   0  0  0  0  0  0  0  0  0  0  0  0
    6.9300    3.9140   14.5800 H   0  0  0  0  0  0  0  0  0  0  0  0
    5.7040    2.9100   15.3690 H   0  0  0  0  0  0  0  0  0  0  0  0
    6.9310    4.8190   17.1810 C   0  0  0  0  0  0  0  0  0  0  0  0
    7.7380    4.1920   16.7840 H   0  0  0  0  0  0  0  0  0  0  0  0
    6.5600    4.3020   18.0760 H   0  0  0  0  0  0  0  0  0  0  0  0
    7.4450    6.1490   17.6160 C   0  0  0  0  0  0  0  0  0  0  0  0
    7.4390    7.2540   16.8960 N   0  0  0  0  0  0  0  0  0  0  0  0
    8.0030    8.2580   17.6450 N   0  0  0  0  0  0  0  0  0  0  0  0
    8.3360    7.7480   18.8070 C   0  0  0  0  0  0  0  0  0  0  0  0
    8.0040    6.4290   18.8350 N   0  0  0  0  0  0  0  0  0  0  0  0
    8.8010    8.2790   19.6250 H   0  0  0  0  0  0  0  0  0  0  0  0
    8.2110    5.5270   19.9350 C   0  0  0  0  0  0  0  0  0  0  0  0
    7.6760    4.5980   19.7300 H   0  0  0  0  0  0  0  0  0  0  0  0
    7.8290    5.9770   20.8560 H   0  0  0  0  0  0  0  0  0  0  0  0
    9.2840    5.3410   20.0370 H   0  0  0  0  0  0  0  0  0  0  0  0
  1  2  2  0  0  0  0
  1  6  1  0  0  0  0
  2  3  1  0  0  0  0
  3  8  1  0  0  0  0
  3  4  2  0  0  0  0
  4  9  1  0  0  0  0
  5  4  1  0  0  0  0
  5 11  1  0  0  0  0
  6  5  2  0  0  0  0
  7  2  1  0  0  0  0
 10  6  1  0  0  0  0
 11 12  1  0  0  0  0
 12 15  1  0  0  0  0
 12 13  2  0  0  0  0
 14 11  1  0  0  0  0
 15 23  1  0  0  0  0
 16 17  1  0  0  0  0
 16 15  2  0  0  0  0
 17 19  2  0  0  0  0
 18 17  1  0  0  0  0
 19 23  1  0  0  0  0
 19 20  1  0  0  0  0
 20 27  1  0  0  0  0
 20 21  2  0  0  0  0
 21 25  1  0  0  0  0
 22 26  1  0  0  0  0
 22 21  1  0  0  0  0
 23 22  2  0  0  0  0
 24 16  1  0  0  0  0
 27 29  1  0  0  0  0
 27 30  1  0  0  0  0
 28 27  1  0  0  0  0
 31 32  1  6  0  0  0
 31  1  1  0  0  0  0
 31 37  1  0  0  0  0
 33 36  1  0  0  0  0
 33 31  1  0  0  0  0
 34 33  1  0  0  0  0
 35 33  1  0  0  0  0
 37 40  1  0  0  0  0
 37 39  1  0  0  0  0
 38 37  1  0  0  0  0
 40 44  1  0  0  0  0
 41 40  2  0  0  0  0
 41 42  1  0  0  0  0
 42 43  2  0  0  0  0
 43 44  1  0  0  0  0
 43 45  1  0  0  0  0
 44 46  1  0  0  0  0
 46 49  1  0  0  0  0
 46 48  1  0  0  0  0
 47 46  1  0  0  0  0
M  END
>  <MODEL>
5

>  <REMARK>
 VINA RESULT:    -8.572      5.490      9.685
 INTER + INTRA:         -12.324
 INTER:                 -11.228
 INTRA:                  -1.096
 UNBOUND:                -0.243
  Name = 
  8 active torsions:
  status: ('A' for Active; 'I' for Inactive)
    1  A    between atoms: C_1  and  C_2
    2  A    between atoms: C_2  and  C_3
    3  A    between atoms: C_2  and  C_10
    4  A    between atoms: C_3  and  C_4
    5  A    between atoms: N_8  and  C_9
    6  A    between atoms: C_14  and  N_15
    7  A    between atoms: C_16  and  C_18
    8  A    between atoms: C_23  and  C_24
                            x       y       z     vdW  Elec       q    Type
                         _______ _______ _______ _____ _____    ______ ____

>  <TORSDO>
F 8

$$$$
=
 OpenBabel07192307433D

 49 52  0  0  1  0  0  0  0  0999 V2000
    5.5410    4.8190   18.9710 C   0  0  0  0  0  0  0  0  0  0  0  0
    4.9770    3.5440   19.1040 C   0  0  0  0  0  0  0  0  0  0  0  0
    3.6280    3.4010   19.4260 C   0  0  0  0  0  0  0  0  0  0  0  0
    2.8250    4.5270   19.6260 C   0  0  0  0  0  0  0  0  0  0  0  0
    3.3630    5.8070   19.5100 C   0  0  0  0  0  0  0  0  0  0  0  0
    4.7210    5.9420   19.1820 C   0  0  0  0  0  0  0  0  0  0  0  0
    5.5760    2.6490   18.9600 H   0  0  0  0  0  0  0  0  0  0  0  0
    3.1940    2.4090   19.5230 H   0  0  0  0  0  0  0  0  0  0  0  0
    1.7800    4.3650   19.8700 H   0  0  0  0  0  0  0  0  0  0  0  0
    5.1590    6.9340   19.0910 H   0  0  0  0  0  0  0  0  0  0  0  0
    2.6270    6.9960   19.6960 N   0  0  0  0  0  0  0  0  0  0  0  0
    2.2100    7.8850   18.7260 C   0  0  0  0  0  0  0  0  0  0  0  0
    2.3660    7.7770   17.5150 O   0  0  0  0  0  0  0  0  0  0  0  0
    2.3450    7.1830   20.6490 H   0  0  0  0  0  0  0  0  0  0  0  0
    1.4770    9.0580   19.2680 C   0  0  0  0  0  0  0  0  0  0  0  0
    1.2590   10.2800   18.7290 C   0  0  0  0  0  0  0  0  0  0  0  0
    0.4350   11.0920   19.6320 C   0  0  0  0  0  0  0  0  0  0  0  0
   -0.0310   12.6800   19.2870 Cl  0  0  0  0  0  0  0  0  0  0  0  0
    0.1390   10.3640   20.7110 C   0  0  0  0  0  0  0  0  0  0  0  0
   -0.5580   10.3770   21.9610 C   0  0  0  0  0  0  0  0  0  0  0  0
   -0.3470    9.1460   22.4860 C   0  0  0  0  0  0  0  0  0  0  0  0
    0.4810    8.3350   21.5880 C   0  0  0  0  0  0  0  0  0  0  0  0
    0.7720    9.0800   20.5180 C   0  0  0  0  0  0  0  0  0  0  0  0
    1.5900   10.6410   17.7670 H   0  0  0  0  0  0  0  0  0  0  0  0
   -0.7260    8.7830   23.4320 H   0  0  0  0  0  0  0  0  0  0  0  0
    0.7890    7.3160   21.7720 H   0  0  0  0  0  0  0  0  0  0  0  0
   -1.3240   11.5240   22.4960 C   0  0  0  0  0  0  0  0  0  0  0  0
   -2.0560   11.1850   23.5880 F   0  0  0  0  0  0  0  0  0  0  0  0
   -2.1860   12.0340   21.5800 F   0  0  0  0  0  0  0  0  0  0  0  0
   -0.5120   12.5460   22.8760 F   0  0  0  0  0  0  0  0  0  0  0  0
    7.0140    5.0190   18.6380 C   0  0  2  0  0  0  0  0  0  0  0  0
    7.4550    4.0310   18.4510 H   0  0  0  0  0  0  0  0  0  0  0  0
    7.7830    5.6170   19.8260 C   0  0  0  0  0  0  0  0  0  0  0  0
    8.5050    6.3670   19.4890 H   0  0  0  0  0  0  0  0  0  0  0  0
    7.1140    6.1020   20.5450 H   0  0  0  0  0  0  0  0  0  0  0  0
    8.3420    4.8400   20.3600 H   0  0  0  0  0  0  0  0  0  0  0  0
    7.1580    5.8730   17.3620 C   0  0  0  0  0  0  0  0  0  0  0  0
    8.2030    6.1730   17.2200 H   0  0  0  0  0  0  0  0  0  0  0  0
    6.5890    6.8050   17.4760 H   0  0  0  0  0  0  0  0  0  0  0  0
    6.6290    5.1730   16.1560 C   0  0  0  0  0  0  0  0  0  0  0  0
    7.0520    4.0170   15.6850 N   0  0  0  0  0  0  0  0  0  0  0  0
    6.3200    3.7170   14.5620 N   0  0  0  0  0  0  0  0  0  0  0  0
    5.4620    4.6910   14.3740 C   0  0  0  0  0  0  0  0  0  0  0  0
    5.6180    5.6260   15.3500 N   0  0  0  0  0  0  0  0  0  0  0  0
    4.7380    4.7560   13.5760 H   0  0  0  0  0  0  0  0  0  0  0  0
    4.8630    6.8410   15.4850 C   0  0  0  0  0  0  0  0  0  0  0  0
    3.8010    6.6060   15.3880 H   0  0  0  0  0  0  0  0  0  0  0  0
    5.1570    7.5460   14.7020 H   0  0  0  0  0  0  0  0  0  0  0  0
    5.0730    7.2770   16.4670 H   0  0  0  0  0  0  0  0  0  0  0  0
  1  2  2  0  0  0  0
  1  6  1  0  0  0  0
  2  3  1  0  0  0  0
  3  8  1  0  0  0  0
  3  4  2  0  0  0  0
  4  9  1  0  0  0  0
  5  4  1  0  0  0  0
  5 11  1  0  0  0  0
  6  5  2  0  0  0  0
  7  2  1  0  0  0  0
 10  6  1  0  0  0  0
 11 14  1  0  0  0  0
 12 15  1  0  0  0  0
 12 11  1  0  0  0  0
 13 12  2  0  0  0  0
 15 23  1  0  0  0  0
 16 15  2  0  0  0  0
 16 17  1  0  0  0  0
 17 19  2  0  0  0  0
 18 17  1  0  0  0  0
 19 20  1  0  0  0  0
 20 21  2  0  0  0  0
 20 27  1  0  0  0  0
 21 25  1  0  0  0  0
 22 26  1  0  0  0  0
 22 21  1  0  0  0  0
 23 19  1  0  0  0  0
 23 22  2  0  0  0  0
 24 16  1  0  0  0  0
 27 30  1  0  0  0  0
 27 28  1  0  0  0  0
 29 27  1  0  0  0  0
 31 32  1  6  0  0  0
 31  1  1  0  0  0  0
 31 33  1  0  0  0  0
 33 36  1  0  0  0  0
 33 35  1  0  0  0  0
 34 33  1  0  0  0  0
 37 39  1  0  0  0  0
 37 31  1  0  0  0  0
 38 37  1  0  0  0  0
 40 37  1  0  0  0  0
 41 40  2  0  0  0  0
 42 41  1  0  0  0  0
 43 42  2  0  0  0  0
 43 44  1  0  0  0  0
 44 46  1  0  0  0  0
 44 40  1  0  0  0  0
 45 43  1  0  0  0  0
 46 49  1  0  0  0  0
 47 46  1  0  0  0  0
 48 46  1  0  0  0  0
M  END
>  <MODEL>
6

>  <REMARK>
 VINA RESULT:    -8.539      5.638      9.258
 INTER + INTRA:         -12.277
 INTER:                 -11.128
 INTRA:                  -1.150
 UNBOUND:                -0.243
  Name = 
  8 active torsions:
  status: ('A' for Active; 'I' for Inactive)
    1  A    between atoms: C_1  and  C_2
    2  A    between atoms: C_2  and  C_3
    3  A    between atoms: C_2  and  C_10
    4  A    between atoms: C_3  and  C_4
    5  A    between atoms: N_8  and  C_9
    6  A    between atoms: C_14  and  N_15
    7  A    between atoms: C_16  and  C_18
    8  A    between atoms: C_23  and  C_24
                            x       y       z     vdW  Elec       q    Type
                         _______ _______ _______ _____ _____    ______ ____

>  <TORSDO>
F 8

$$$$
=
 OpenBabel07192307433D

 49 52  0  0  1  0  0  0  0  0999 V2000
   -0.2360   11.0820   20.9180 C   0  0  0  0  0  0  0  0  0  0  0  0
   -0.6730   10.9650   22.2430 C   0  0  0  0  0  0  0  0  0  0  0  0
   -0.2760    9.8790   23.0220 C   0  0  0  0  0  0  0  0  0  0  0  0
    0.5580    8.8930   22.4900 C   0  0  0  0  0  0  0  0  0  0  0  0
    1.0000    8.9800   21.1700 C   0  0  0  0  0  0  0  0  0  0  0  0
    0.5980   10.0770   20.3940 C   0  0  0  0  0  0  0  0  0  0  0  0
   -1.3270   11.7120   22.6850 H   0  0  0  0  0  0  0  0  0  0  0  0
   -0.6140    9.7960   24.0520 H   0  0  0  0  0  0  0  0  0  0  0  0
    0.8440    8.0700   23.1360 H   0  0  0  0  0  0  0  0  0  0  0  0
    0.9300   10.1600   19.3610 H   0  0  0  0  0  0  0  0  0  0  0  0
    1.8400    8.0300   20.5520 N   0  0  0  0  0  0  0  0  0  0  0  0
    2.0330    7.8350   19.1990 C   0  0  0  0  0  0  0  0  0  0  0  0
    1.5400    8.4870   18.2860 O   0  0  0  0  0  0  0  0  0  0  0  0
    2.3880    7.4630   21.1850 H   0  0  0  0  0  0  0  0  0  0  0  0
    2.9670    6.7240   18.8850 C   0  0  0  0  0  0  0  0  0  0  0  0
    3.1530    5.5350   19.5040 C   0  0  0  0  0  0  0  0  0  0  0  0
    4.1640    4.7460   18.7910 C   0  0  0  0  0  0  0  0  0  0  0  0
    4.6590    3.2070   19.2850 Cl  0  0  0  0  0  0  0  0  0  0  0  0
    4.5830    5.4440   17.7340 C   0  0  0  0  0  0  0  0  0  0  0  0
    5.4650    5.4210   16.6060 C   0  0  0  0  0  0  0  0  0  0  0  0
    5.2610    6.6080   15.9840 C   0  0  0  0  0  0  0  0  0  0  0  0
    4.2550    7.4000   16.6990 C   0  0  0  0  0  0  0  0  0  0  0  0
    3.8520    6.6900   17.7560 C   0  0  0  0  0  0  0  0  0  0  0  0
    2.6350    5.1600   20.3740 H   0  0  0  0  0  0  0  0  0  0  0  0
    5.7560    6.9490   15.0850 H   0  0  0  0  0  0  0  0  0  0  0  0
    3.9100    8.3810   16.4060 H   0  0  0  0  0  0  0  0  0  0  0  0
    6.3730    4.3060   16.2590 C   0  0  0  0  0  0  0  0  0  0  0  0
    7.2750    4.0550   17.2420 F   0  0  0  0  0  0  0  0  0  0  0  0
    7.0780    4.5550   15.1250 F   0  0  0  0  0  0  0  0  0  0  0  0
    5.6980    3.1460   16.0480 F   0  0  0  0  0  0  0  0  0  0  0  0
   -0.6610   12.2420   20.0270 C   0  0  2  0  0  0  0  0  0  0  0  0
   -0.1960   12.1000   19.0420 H   0  0  0  0  0  0  0  0  0  0  0  0
   -0.1360   13.5830   20.5620 C   0  0  0  0  0  0  0  0  0  0  0  0
   -0.8780   14.0660   21.2060 H   0  0  0  0  0  0  0  0  0  0  0  0
    0.7800   13.4600   21.1480 H   0  0  0  0  0  0  0  0  0  0  0  0
    0.0820   14.2730   19.7390 H   0  0  0  0  0  0  0  0  0  0  0  0
   -2.1940   12.2440   19.8530 C   0  0  0  0  0  0  0  0  0  0  0  0
   -2.5990   13.2420   20.0560 H   0  0  0  0  0  0  0  0  0  0  0  0
   -2.6500   11.5750   20.5960 H   0  0  0  0  0  0  0  0  0  0  0  0
   -2.6050   11.7580   18.5040 C   0  0  0  0  0  0  0  0  0  0  0  0
   -1.7930   11.3980   17.5300 N   0  0  0  0  0  0  0  0  0  0  0  0
   -2.5560   11.0220   16.4520 N   0  0  0  0  0  0  0  0  0  0  0  0
   -3.8160   11.1530   16.7900 C   0  0  0  0  0  0  0  0  0  0  0  0
   -3.8960   11.6100   18.0690 N   0  0  0  0  0  0  0  0  0  0  0  0
   -4.6690   10.9350   16.1650 H   0  0  0  0  0  0  0  0  0  0  0  0
   -5.1060   11.8820   18.7970 C   0  0  0  0  0  0  0  0  0  0  0  0
   -5.5330   10.9330   19.1300 H   0  0  0  0  0  0  0  0  0  0  0  0
   -5.8180   12.3980   18.1460 H   0  0  0  0  0  0  0  0  0  0  0  0
   -4.8640   12.5180   19.6530 H   0  0  0  0  0  0  0  0  0  0  0  0
  1  2  1  0  0  0  0
  2  7  1  0  0  0  0
  2  3  2  0  0  0  0
  3  8  1  0  0  0  0
  4  3  1  0  0  0  0
  4  9  1  0  0  0  0
  5  4  2  0  0  0  0
  6  1  2  0  0  0  0
  6  5  1  0  0  0  0
 10  6  1  0  0  0  0
 11  5  1  0  0  0  0
 11 14  1  0  0  0  0
 12 11  1  0  0  0  0
 13 12  2  0  0  0  0
 15 12  1  0  0  0  0
 15 16  1  0  0  0  0
 16 24  1  0  0  0  0
 17 18  1  0  0  0  0
 17 16  2  0  0  0  0
 19 23  1  0  0  0  0
 19 17  1  0  0  0  0
 20 19  2  0  0  0  0
 21 20  1  0  0  0  0
 21 22  2  0  0  0  0
 22 23  1  0  0  0  0
 23 15  2  0  0  0  0
 25 21  1  0  0  0  0
 26 22  1  0  0  0  0
 27 20  1  0  0  0  0
 27 28  1  0  0  0  0
 29 27  1  0  0  0  0
 30 27  1  0  0  0  0
 31 32  1  6  0  0  0
 31 33  1  0  0  0  0
 31  1  1  0  0  0  0
 33 35  1  0  0  0  0
 33 34  1  0  0  0  0
 36 33  1  0  0  0  0
 37 31  1  0  0  0  0
 37 38  1  0  0  0  0
 37 39  1  0  0  0  0
 40 37  1  0  0  0  0
 41 40  2  0  0  0  0
 42 43  2  0  0  0  0
 42 41  1  0  0  0  0
 43 44  1  0  0  0  0
 44 40  1  0  0  0  0
 44 46  1  0  0  0  0
 45 43  1  0  0  0  0
 46 47  1  0  0  0  0
 46 49  1  0  0  0  0
 48 46  1  0  0  0  0
M  END
>  <MODEL>
7

>  <REMARK>
 VINA RESULT:    -8.531      1.395      1.558
 INTER + INTRA:         -12.265
 INTER:                 -11.588
 INTRA:                  -0.677
 UNBOUND:                -0.243
  Name = 
  8 active torsions:
  status: ('A' for Active; 'I' for Inactive)
    1  A    between atoms: C_1  and  C_2
    2  A    between atoms: C_2  and  C_3
    3  A    between atoms: C_2  and  C_10
    4  A    between atoms: C_3  and  C_4
    5  A    between atoms: N_8  and  C_9
    6  A    between atoms: C_14  and  N_15
    7  A    between atoms: C_16  and  C_18
    8  A    between atoms: C_23  and  C_24
                            x       y       z     vdW  Elec       q    Type
                         _______ _______ _______ _____ _____    ______ ____

>  <TORSDO>
F 8

$$$$
=
 OpenBabel07192307433D

 49 52  0  0  1  0  0  0  0  0999 V2000
   -0.7960   11.7760   19.2260 C   0  0  0  0  0  0  0  0  0  0  0  0
    0.0120   12.9040   19.0350 C   0  0  0  0  0  0  0  0  0  0  0  0
    1.3450   12.7570   18.6510 C   0  0  0  0  0  0  0  0  0  0  0  0
    1.8910   11.4860   18.4580 C   0  0  0  0  0  0  0  0  0  0  0  0
    1.1110   10.3470   18.6510 C   0  0  0  0  0  0  0  0  0  0  0  0
   -0.2300   10.5030   19.0340 C   0  0  0  0  0  0  0  0  0  0  0  0
   -0.3810   13.9060   19.1810 H   0  0  0  0  0  0  0  0  0  0  0  0
    1.9670   13.6360   18.4990 H   0  0  0  0  0  0  0  0  0  0  0  0
    2.9310   11.4230   18.1550 H   0  0  0  0  0  0  0  0  0  0  0  0
   -0.8520    9.6250   19.1930 H   0  0  0  0  0  0  0  0  0  0  0  0
    1.5810    9.0270   18.4810 N   0  0  0  0  0  0  0  0  0  0  0  0
    1.9350    8.1290   19.4680 C   0  0  0  0  0  0  0  0  0  0  0  0
    1.8610    8.3020   20.6790 O   0  0  0  0  0  0  0  0  0  0  0  0
    1.6170    8.7040   17.5240 H   0  0  0  0  0  0  0  0  0  0  0  0
    2.4210    6.8280   18.9420 C   0  0  0  0  0  0  0  0  0  0  0  0
    3.3170    6.5590   17.9640 C   0  0  0  0  0  0  0  0  0  0  0  0
    3.5050    5.1090   17.8350 C   0  0  0  0  0  0  0  0  0  0  0  0
    4.5480    4.4040   16.7070 Cl  0  0  0  0  0  0  0  0  0  0  0  0
    2.7380    4.4970   18.7400 C   0  0  0  0  0  0  0  0  0  0  0  0
    2.3530    3.2190   19.2590 C   0  0  0  0  0  0  0  0  0  0  0  0
    1.4690    3.4990   20.2460 C   0  0  0  0  0  0  0  0  0  0  0  0
    1.2750    4.9470   20.3720 C   0  0  0  0  0  0  0  0  0  0  0  0
    2.0450    5.5420   19.4560 C   0  0  0  0  0  0  0  0  0  0  0  0
    3.8660    7.2690   17.3640 H   0  0  0  0  0  0  0  0  0  0  0  0
    0.9620    2.7760   20.8710 H   0  0  0  0  0  0  0  0  0  0  0  0
    0.6250    5.4300   21.0870 H   0  0  0  0  0  0  0  0  0  0  0  0
    2.8580    1.9160   18.7710 C   0  0  0  0  0  0  0  0  0  0  0  0
    2.1710    0.8710   19.2990 F   0  0  0  0  0  0  0  0  0  0  0  0
    4.1670    1.7290   19.0770 F   0  0  0  0  0  0  0  0  0  0  0  0
    2.7560    1.8040   17.4200 F   0  0  0  0  0  0  0  0  0  0  0  0
   -2.2510   11.8910   19.6620 C   0  0  2  0  0  0  0  0  0  0  0  0
   -2.4760   11.0360   20.3140 H   0  0  0  0  0  0  0  0  0  0  0  0
   -3.2070   11.7830   18.4650 C   0  0  0  0  0  0  0  0  0  0  0  0
   -3.7430   10.8280   18.4760 H   0  0  0  0  0  0  0  0  0  0  0  0
   -3.9570   12.5810   18.4660 H   0  0  0  0  0  0  0  0  0  0  0  0
   -2.6570   11.8400   17.5190 H   0  0  0  0  0  0  0  0  0  0  0  0
   -2.4640   13.1920   20.4630 C   0  0  0  0  0  0  0  0  0  0  0  0
   -3.0070   13.9270   19.8580 H   0  0  0  0  0  0  0  0  0  0  0  0
   -1.4910   13.6470   20.6910 H   0  0  0  0  0  0  0  0  0  0  0  0
   -3.1560   12.9450   21.7600 C   0  0  0  0  0  0  0  0  0  0  0  0
   -4.4110   13.2400   22.0370 N   0  0  0  0  0  0  0  0  0  0  0  0
   -4.6660   12.8640   23.3330 N   0  0  0  0  0  0  0  0  0  0  0  0
   -3.5650   12.3410   23.8190 C   0  0  0  0  0  0  0  0  0  0  0  0
   -2.5920   12.3690   22.8690 N   0  0  0  0  0  0  0  0  0  0  0  0
   -3.4350   11.9460   24.8160 H   0  0  0  0  0  0  0  0  0  0  0  0
   -1.2460   11.8890   23.0210 C   0  0  0  0  0  0  0  0  0  0  0  0
   -0.5730   12.5620   22.4870 H   0  0  0  0  0  0  0  0  0  0  0  0
   -1.1660   10.8810   22.6040 H   0  0  0  0  0  0  0  0  0  0  0  0
   -1.0020   11.8630   24.0870 H   0  0  0  0  0  0  0  0  0  0  0  0
  1 31  1  0  0  0  0
  2  7  1  0  0  0  0
  2  1  1  0  0  0  0
  3  2  2  0  0  0  0
  4  3  1  0  0  0  0
  4  5  2  0  0  0  0
  5  6  1  0  0  0  0
  6 10  1  0  0  0  0
  6  1  2  0  0  0  0
  8  3  1  0  0  0  0
  9  4  1  0  0  0  0
 11  5  1  0  0  0  0
 11 12  1  0  0  0  0
 12 13  2  0  0  0  0
 14 11  1  0  0  0  0
 15 23  1  0  0  0  0
 15 12  1  0  0  0  0
 16 15  2  0  0  0  0
 17 16  1  0  0  0  0
 17 19  2  0  0  0  0
 18 17  1  0  0  0  0
 19 20  1  0  0  0  0
 19 23  1  0  0  0  0
 20 21  2  0  0  0  0
 21 22  1  0  0  0  0
 21 25  1  0  0  0  0
 22 26  1  0  0  0  0
 23 22  2  0  0  0  0
 24 16  1  0  0  0  0
 27 29  1  0  0  0  0
 27 20  1  0  0  0  0
 27 28  1  0  0  0  0
 30 27  1  0  0  0  0
 31 32  1  1  0  0  0
 31 37  1  0  0  0  0
 33 35  1  0  0  0  0
 33 34  1  0  0  0  0
 33 31  1  0  0  0  0
 36 33  1  0  0  0  0
 37 39  1  0  0  0  0
 37 40  1  0  0  0  0
 38 37  1  0  0  0  0
 40 41  2  0  0  0  0
 40 44  1  0  0  0  0
 41 42  1  0  0  0  0
 42 43  2  0  0  0  0
 43 45  1  0  0  0  0
 44 46  1  0  0  0  0
 44 43  1  0  0  0  0
 46 49  1  0  0  0  0
 47 46  1  0  0  0  0
 48 46  1  0  0  0  0
M  END
>  <MODEL>
8

>  <REMARK>
 VINA RESULT:    -8.414      3.045      4.469
 INTER + INTRA:         -12.100
 INTER:                 -10.960
 INTRA:                  -1.140
 UNBOUND:                -0.243
  Name = 
  8 active torsions:
  status: ('A' for Active; 'I' for Inactive)
    1  A    between atoms: C_1  and  C_2
    2  A    between atoms: C_2  and  C_3
    3  A    between atoms: C_2  and  C_10
    4  A    between atoms: C_3  and  C_4
    5  A    between atoms: N_8  and  C_9
    6  A    between atoms: C_14  and  N_15
    7  A    between atoms: C_16  and  C_18
    8  A    between atoms: C_23  and  C_24
                            x       y       z     vdW  Elec       q    Type
                         _______ _______ _______ _____ _____    ______ ____

>  <TORSDO>
F 8

$$$$
=
 OpenBabel07192307433D

 49 52  0  0  1  0  0  0  0  0999 V2000
   -0.5340   11.4730   18.9500 C   0  0  0  0  0  0  0  0  0  0  0  0
    0.2590   12.6260   18.9070 C   0  0  0  0  0  0  0  0  0  0  0  0
    1.6060   12.5420   18.5590 C   0  0  0  0  0  0  0  0  0  0  0  0
    2.1830   11.3080   18.2540 C   0  0  0  0  0  0  0  0  0  0  0  0
    1.4190   10.1420   18.2980 C   0  0  0  0  0  0  0  0  0  0  0  0
    0.0640   10.2350   18.6460 C   0  0  0  0  0  0  0  0  0  0  0  0
   -0.1590   13.6010   19.1440 H   0  0  0  0  0  0  0  0  0  0  0  0
    2.2160   13.4420   18.5220 H   0  0  0  0  0  0  0  0  0  0  0  0
    3.2340   11.2930   17.9830 H   0  0  0  0  0  0  0  0  0  0  0  0
   -0.5470    9.3360   18.6890 H   0  0  0  0  0  0  0  0  0  0  0  0
    1.9200    8.8550   18.0070 N   0  0  0  0  0  0  0  0  0  0  0  0
    2.1920    7.8390   18.9020 C   0  0  0  0  0  0  0  0  0  0  0  0
    2.0020    7.8570   20.1120 O   0  0  0  0  0  0  0  0  0  0  0  0
    2.0510    8.6560   17.0250 H   0  0  0  0  0  0  0  0  0  0  0  0
    2.7420    6.6160   18.2640 C   0  0  0  0  0  0  0  0  0  0  0  0
    2.2560    5.3530   18.2280 C   0  0  0  0  0  0  0  0  0  0  0  0
    3.1380    4.4940   17.4310 C   0  0  0  0  0  0  0  0  0  0  0  0
    2.8480    2.8480   17.1740 Cl  0  0  0  0  0  0  0  0  0  0  0  0
    4.1510    5.2310   16.9700 C   0  0  0  0  0  0  0  0  0  0  0  0
    5.3440    5.1960   16.1800 C   0  0  0  0  0  0  0  0  0  0  0  0
    5.8150    6.4660   16.2090 C   0  0  0  0  0  0  0  0  0  0  0  0
    4.9370    7.3260   17.0110 C   0  0  0  0  0  0  0  0  0  0  0  0
    3.9350    6.5700   17.4680 C   0  0  0  0  0  0  0  0  0  0  0  0
    1.3420    4.9900   18.6740 H   0  0  0  0  0  0  0  0  0  0  0  0
    6.7090    6.8260   15.7170 H   0  0  0  0  0  0  0  0  0  0  0  0
    5.0880    8.3810   17.1860 H   0  0  0  0  0  0  0  0  0  0  0  0
    5.8840    3.9940   15.5070 C   0  0  0  0  0  0  0  0  0  0  0  0
    5.6870    2.8670   16.2380 F   0  0  0  0  0  0  0  0  0  0  0  0
    7.2180    4.0930   15.2770 F   0  0  0  0  0  0  0  0  0  0  0  0
    5.2970    3.7790   14.3000 F   0  0  0  0  0  0  0  0  0  0  0  0
   -2.0050   11.5180   19.3430 C   0  0  2  0  0  0  0  0  0  0  0  0
   -2.1770   10.7360   20.0950 H   0  0  0  0  0  0  0  0  0  0  0  0
   -2.9150   11.1800   18.1530 C   0  0  0  0  0  0  0  0  0  0  0  0
   -2.3270   11.0040   17.2460 H   0  0  0  0  0  0  0  0  0  0  0  0
   -3.5140   10.2820   18.3370 H   0  0  0  0  0  0  0  0  0  0  0  0
   -3.6050   12.0050   17.9420 H   0  0  0  0  0  0  0  0  0  0  0  0
   -2.3460   12.8860   19.9670 C   0  0  0  0  0  0  0  0  0  0  0  0
   -2.9420   13.4850   19.2700 H   0  0  0  0  0  0  0  0  0  0  0  0
   -1.4210   13.4530   20.1390 H   0  0  0  0  0  0  0  0  0  0  0  0
   -3.0330   12.7460   21.2830 C   0  0  0  0  0  0  0  0  0  0  0  0
   -4.3360   12.7720   21.4820 N   0  0  0  0  0  0  0  0  0  0  0  0
   -4.5690   12.6180   22.8270 N   0  0  0  0  0  0  0  0  0  0  0  0
   -3.4050   12.4940   23.4210 C   0  0  0  0  0  0  0  0  0  0  0  0
   -2.4130   12.5670   22.4920 N   0  0  0  0  0  0  0  0  0  0  0  0
   -3.2420   12.3550   24.4790 H   0  0  0  0  0  0  0  0  0  0  0  0
   -1.0030   12.4760   22.7520 C   0  0  0  0  0  0  0  0  0  0  0  0
   -0.7540   13.1540   23.5710 H   0  0  0  0  0  0  0  0  0  0  0  0
   -0.4450   12.7600   21.8550 H   0  0  0  0  0  0  0  0  0  0  0  0
   -0.7620   11.4430   23.0200 H   0  0  0  0  0  0  0  0  0  0  0  0
  1 31  1  0  0  0  0
  2  1  1  0  0  0  0
  2  7  1  0  0  0  0
  3  2  2  0  0  0  0
  4  5  2  0  0  0  0
  4  3  1  0  0  0  0
  5  6  1  0  0  0  0
  6 10  1  0  0  0  0
  6  1  2  0  0  0  0
  8  3  1  0  0  0  0
  9  4  1  0  0  0  0
 11  5  1  0  0  0  0
 11 12  1  0  0  0  0
 12 13  2  0  0  0  0
 14 11  1  0  0  0  0
 15 12  1  0  0  0  0
 16 15  1  0  0  0  0
 16 24  1  0  0  0  0
 17 16  2  0  0  0  0
 18 17  1  0  0  0  0
 19 17  1  0  0  0  0
 19 23  1  0  0  0  0
 20 21  1  0  0  0  0
 20 19  2  0  0  0  0
 21 22  2  0  0  0  0
 22 26  1  0  0  0  0
 22 23  1  0  0  0  0
 23 15  2  0  0  0  0
 25 21  1  0  0  0  0
 27 20  1  0  0  0  0
 27 28  1  0  0  0  0
 29 27  1  0  0  0  0
 30 27  1  0  0  0  0
 31 37  1  0  0  0  0
 31 32  1  1  0  0  0
 33 35  1  0  0  0  0
 33 31  1  0  0  0  0
 34 33  1  0  0  0  0
 36 33  1  0  0  0  0
 37 39  1  0  0  0  0
 37 40  1  0  0  0  0
 38 37  1  0  0  0  0
 40 41  2  0  0  0  0
 40 44  1  0  0  0  0
 41 42  1  0  0  0  0
 42 43  2  0  0  0  0
 43 45  1  0  0  0  0
 44 46  1  0  0  0  0
 44 43  1  0  0  0  0
 46 49  1  0  0  0  0
 46 47  1  0  0  0  0
 48 46  1  0  0  0  0
M  END
>  <MODEL>
9

>  <REMARK>
 VINA RESULT:    -8.382      2.403      3.401
 INTER + INTRA:         -12.056
 INTER:                 -10.976
 INTRA:                  -1.080
 UNBOUND:                -0.243
  Name = 
  8 active torsions:
  status: ('A' for Active; 'I' for Inactive)
    1  A    between atoms: C_1  and  C_2
    2  A    between atoms: C_2  and  C_3
    3  A    between atoms: C_2  and  C_10
    4  A    between atoms: C_3  and  C_4
    5  A    between atoms: N_8  and  C_9
    6  A    between atoms: C_14  and  N_15
    7  A    between atoms: C_16  and  C_18
    8  A    between atoms: C_23  and  C_24
                            x       y       z     vdW  Elec       q    Type
                         _______ _______ _______ _____ _____    ______ ____

>  <TORSDO>
F 8

$$$$
=
 OpenBabel07192307433D

 49 52  0  0  1  0  0  0  0  0999 V2000
    4.3680    4.5070   16.9520 C   0  0  0  0  0  0  0  0  0  0  0  0
    3.8670    3.2000   16.9760 C   0  0  0  0  0  0  0  0  0  0  0  0
    2.7400    2.8920   17.7370 C   0  0  0  0  0  0  0  0  0  0  0  0
    2.1000    3.8810   18.4870 C   0  0  0  0  0  0  0  0  0  0  0  0
    2.5830    5.1890   18.4880 C   0  0  0  0  0  0  0  0  0  0  0  0
    3.7160    5.4910   17.7180 C   0  0  0  0  0  0  0  0  0  0  0  0
    4.3450    2.4070   16.4080 H   0  0  0  0  0  0  0  0  0  0  0  0
    2.3520    1.8760   17.7480 H   0  0  0  0  0  0  0  0  0  0  0  0
    1.2230    3.5940   19.0590 H   0  0  0  0  0  0  0  0  0  0  0  0
    4.1100    6.5060   17.7090 H   0  0  0  0  0  0  0  0  0  0  0  0
    2.0010    6.2480   19.2170 N   0  0  0  0  0  0  0  0  0  0  0  0
    2.1820    7.6020   19.0170 C   0  0  0  0  0  0  0  0  0  0  0  0
    2.8500    8.1310   18.1360 O   0  0  0  0  0  0  0  0  0  0  0  0
    1.3480    5.9680   19.9350 H   0  0  0  0  0  0  0  0  0  0  0  0
    1.4420    8.4500   19.9850 C   0  0  0  0  0  0  0  0  0  0  0  0
    1.2380    8.2890   21.3140 C   0  0  0  0  0  0  0  0  0  0  0  0
    0.4780    9.4230   21.8510 C   0  0  0  0  0  0  0  0  0  0  0  0
    0.0330    9.5570   23.4760 Cl  0  0  0  0  0  0  0  0  0  0  0  0
    0.2310   10.2800   20.8580 C   0  0  0  0  0  0  0  0  0  0  0  0
   -0.3860   11.5310   20.5330 C   0  0  0  0  0  0  0  0  0  0  0  0
   -0.1640   11.6910   19.2060 C   0  0  0  0  0  0  0  0  0  0  0  0
    0.5900   10.5550   18.6670 C   0  0  0  0  0  0  0  0  0  0  0  0
    0.8230    9.7060   19.6720 C   0  0  0  0  0  0  0  0  0  0  0  0
    1.5920    7.4820   21.9380 H   0  0  0  0  0  0  0  0  0  0  0  0
   -0.4860   12.5300   18.6040 H   0  0  0  0  0  0  0  0  0  0  0  0
    0.8980   10.4430   17.6380 H   0  0  0  0  0  0  0  0  0  0  0  0
   -1.0940   12.4050   21.4950 C   0  0  0  0  0  0  0  0  0  0  0  0
   -2.2290   11.8310   21.9680 F   0  0  0  0  0  0  0  0  0  0  0  0
   -1.4480   13.5920   20.9400 F   0  0  0  0  0  0  0  0  0  0  0  0
   -0.3260   12.6970   22.5780 F   0  0  0  0  0  0  0  0  0  0  0  0
    5.6070    4.8820   16.1490 C   0  0  2  0  0  0  0  0  0  0  0  0
    5.4940    5.9250   15.8220 H   0  0  0  0  0  0  0  0  0  0  0  0
    5.7250    4.0390   14.8710 C   0  0  0  0  0  0  0  0  0  0  0  0
    5.0380    3.1870   14.8980 H   0  0  0  0  0  0  0  0  0  0  0  0
    5.4930    4.6220   13.9730 H   0  0  0  0  0  0  0  0  0  0  0  0
    6.7400    3.6400   14.7580 H   0  0  0  0  0  0  0  0  0  0  0  0
    6.8650    4.7770   17.0350 C   0  0  0  0  0  0  0  0  0  0  0  0
    7.6490    4.2110   16.5180 H   0  0  0  0  0  0  0  0  0  0  0  0
    6.6300    4.2060   17.9430 H   0  0  0  0  0  0  0  0  0  0  0  0
    7.3610    6.1160   17.4660 C   0  0  0  0  0  0  0  0  0  0  0  0
    7.3440    7.2180   16.7420 N   0  0  0  0  0  0  0  0  0  0  0  0
    7.8930    8.2310   17.4890 N   0  0  0  0  0  0  0  0  0  0  0  0
    8.2270    7.7310   18.6540 C   0  0  0  0  0  0  0  0  0  0  0  0
    7.9110    6.4080   18.6870 N   0  0  0  0  0  0  0  0  0  0  0  0
    8.6830    8.2700   19.4720 H   0  0  0  0  0  0  0  0  0  0  0  0
    8.1250    5.5130   19.7910 C   0  0  0  0  0  0  0  0  0  0  0  0
    7.2290    5.5080   20.4150 H   0  0  0  0  0  0  0  0  0  0  0  0
    8.9820    5.8540   20.3800 H   0  0  0  0  0  0  0  0  0  0  0  0
    8.3270    4.5130   19.3980 H   0  0  0  0  0  0  0  0  0  0  0  0
  1  2  2  0  0  0  0
  1  6  1  0  0  0  0
  2  3  1  0  0  0  0
  3  8  1  0  0  0  0
  3  4  2  0  0  0  0
  4  5  1  0  0  0  0
  4  9  1  0  0  0  0
  5 11  1  0  0  0  0
  6  5  2  0  0  0  0
  7  2  1  0  0  0  0
 10  6  1  0  0  0  0
 11 14  1  0  0  0  0
 12 11  1  0  0  0  0
 12 15  1  0  0  0  0
 13 12  2  0  0  0  0
 15 16  1  0  0  0  0
 16 17  2  0  0  0  0
 16 24  1  0  0  0  0
 17 18  1  0  0  0  0
 19 17  1  0  0  0  0
 20 19  2  0  0  0  0
 20 27  1  0  0  0  0
 21 20  1  0  0  0  0
 22 21  2  0  0  0  0
 22 23  1  0  0  0  0
 23 15  2  0  0  0  0
 23 19  1  0  0  0  0
 25 21  1  0  0  0  0
 26 22  1  0  0  0  0
 27 28  1  0  0  0  0
 27 30  1  0  0  0  0
 29 27  1  0  0  0  0
 31 32  1  6  0  0  0
 31  1  1  0  0  0  0
 31 37  1  0  0  0  0
 33 34  1  0  0  0  0
 33 31  1  0  0  0  0
 35 33  1  0  0  0  0
 36 33  1  0  0  0  0
 37 40  1  0  0  0  0
 37 39  1  0  0  0  0
 38 37  1  0  0  0  0
 40 44  1  0  0  0  0
 41 40  2  0  0  0  0
 41 42  1  0  0  0  0
 42 43  2  0  0  0  0
 43 44  1  0  0  0  0
 43 45  1  0  0  0  0
 44 46  1  0  0  0  0
 46 48  1  0  0  0  0
 46 47  1  0  0  0  0
 49 46  1  0  0  0  0
M  END
>  <MODEL>
10

>  <REMARK>
 VINA RESULT:    -8.373      5.393      9.453
 INTER + INTRA:         -12.043
 INTER:                 -11.311
 INTRA:                  -0.732
 UNBOUND:                -0.243
  Name = 
  8 active torsions:
  status: ('A' for Active; 'I' for Inactive)
    1  A    between atoms: C_1  and  C_2
    2  A    between atoms: C_2  and  C_3
    3  A    between atoms: C_2  and  C_10
    4  A    between atoms: C_3  and  C_4
    5  A    between atoms: N_8  and  C_9
    6  A    between atoms: C_14  and  N_15
    7  A    between atoms: C_16  and  C_18
    8  A    between atoms: C_23  and  C_24
                            x       y       z     vdW  Elec       q    Type
                         _______ _______ _______ _____ _____    ______ ____

>  <TORSDO>
F 8

$$$$
=
 OpenBabel07192307433D

 49 52  0  0  1  0  0  0  0  0999 V2000
    5.6240    4.6180   18.7850 C   0  0  0  0  0  0  0  0  0  0  0  0
    5.1160    3.3400   18.5190 C   0  0  0  0  0  0  0  0  0  0  0  0
    3.7690    3.0590   18.7410 C   0  0  0  0  0  0  0  0  0  0  0  0
    2.9110    4.0440   19.2370 C   0  0  0  0  0  0  0  0  0  0  0  0
    3.3940    5.3210   19.5200 C   0  0  0  0  0  0  0  0  0  0  0  0
    4.7500    5.5970   19.2900 C   0  0  0  0  0  0  0  0  0  0  0  0
    5.7580    2.5510   18.1370 H   0  0  0  0  0  0  0  0  0  0  0  0
    3.3780    2.0670   18.5280 H   0  0  0  0  0  0  0  0  0  0  0  0
    1.8700    3.7790   19.3890 H   0  0  0  0  0  0  0  0  0  0  0  0
    5.1450    6.5880   19.5080 H   0  0  0  0  0  0  0  0  0  0  0  0
    2.6010    6.3740   20.0230 N   0  0  0  0  0  0  0  0  0  0  0  0
    2.1770    7.5020   19.3490 C   0  0  0  0  0  0  0  0  0  0  0  0
    2.3770    7.7700   18.1700 O   0  0  0  0  0  0  0  0  0  0  0  0
    2.2800    6.2540   20.9750 H   0  0  0  0  0  0  0  0  0  0  0  0
    1.3780    8.4310   20.1870 C   0  0  0  0  0  0  0  0  0  0  0  0
    1.0770    8.3820   21.5060 C   0  0  0  0  0  0  0  0  0  0  0  0
    0.2910    9.5610   21.8890 C   0  0  0  0  0  0  0  0  0  0  0  0
   -0.2690    9.8320   23.4610 Cl  0  0  0  0  0  0  0  0  0  0  0  0
    0.1250   10.3330   20.8130 C   0  0  0  0  0  0  0  0  0  0  0  0
   -0.4530   11.5550   20.3420 C   0  0  0  0  0  0  0  0  0  0  0  0
   -0.1340   11.6020   19.0260 C   0  0  0  0  0  0  0  0  0  0  0  0
    0.6460   10.4220   18.6390 C   0  0  0  0  0  0  0  0  0  0  0  0
    0.7960    9.6590   19.7250 C   0  0  0  0  0  0  0  0  0  0  0  0
    1.3760    7.6290   22.2190 H   0  0  0  0  0  0  0  0  0  0  0  0
   -0.4020   12.3890   18.3340 H   0  0  0  0  0  0  0  0  0  0  0  0
    1.0260   10.2230   17.6480 H   0  0  0  0  0  0  0  0  0  0  0  0
   -1.2200   12.5090   21.1730 C   0  0  0  0  0  0  0  0  0  0  0  0
   -1.7140   13.5410   20.4430 F   0  0  0  0  0  0  0  0  0  0  0  0
   -0.4620   13.0470   22.1630 F   0  0  0  0  0  0  0  0  0  0  0  0
   -2.2830   11.9180   21.7780 F   0  0  0  0  0  0  0  0  0  0  0  0
    7.0930    4.9620   18.5730 C   0  0  2  0  0  0  0  0  0  0  0  0
    7.6310    4.0280   18.3620 H   0  0  0  0  0  0  0  0  0  0  0  0
    7.7230    5.5440   19.8470 C   0  0  0  0  0  0  0  0  0  0  0  0
    6.9520    5.8650   20.5550 H   0  0  0  0  0  0  0  0  0  0  0  0
    8.3600    4.8150   20.3590 H   0  0  0  0  0  0  0  0  0  0  0  0
    8.3390    6.4210   19.6130 H   0  0  0  0  0  0  0  0  0  0  0  0
    7.2480    5.9050   17.3620 C   0  0  0  0  0  0  0  0  0  0  0  0
    8.2940    6.2100   17.2480 H   0  0  0  0  0  0  0  0  0  0  0  0
    6.6820    6.8290   17.5410 H   0  0  0  0  0  0  0  0  0  0  0  0
    6.7220    5.2970   16.1060 C   0  0  0  0  0  0  0  0  0  0  0  0
    7.2320    4.2560   15.4780 N   0  0  0  0  0  0  0  0  0  0  0  0
    6.4680    4.0100   14.3630 N   0  0  0  0  0  0  0  0  0  0  0  0
    5.5060    4.9000   14.3360 C   0  0  0  0  0  0  0  0  0  0  0  0
    5.6230    5.7270   15.4100 N   0  0  0  0  0  0  0  0  0  0  0  0
    4.7320    4.9790   13.5870 H   0  0  0  0  0  0  0  0  0  0  0  0
    4.7570    6.8290   15.7280 C   0  0  0  0  0  0  0  0  0  0  0  0
    3.7220    6.5090   15.5960 H   0  0  0  0  0  0  0  0  0  0  0  0
    4.9710    7.6690   15.0610 H   0  0  0  0  0  0  0  0  0  0  0  0
    4.9390    7.1300   16.7640 H   0  0  0  0  0  0  0  0  0  0  0  0
  1  6  1  0  0  0  0
  2  3  1  0  0  0  0
  2  1  2  0  0  0  0
  3  4  2  0  0  0  0
  4  9  1  0  0  0  0
  4  5  1  0  0  0  0
  5 11  1  0  0  0  0
  6 10  1  0  0  0  0
  6  5  2  0  0  0  0
  7  2  1  0  0  0  0
  8  3  1  0  0  0  0
 11 14  1  0  0  0  0
 12 11  1  0  0  0  0
 12 15  1  0  0  0  0
 13 12  2  0  0  0  0
 15 16  1  0  0  0  0
 16 17  2  0  0  0  0
 16 24  1  0  0  0  0
 17 18  1  0  0  0  0
 19 17  1  0  0  0  0
 20 19  2  0  0  0  0
 20 27  1  0  0  0  0
 21 20  1  0  0  0  0
 22 21  2  0  0  0  0
 22 23  1  0  0  0  0
 23 15  2  0  0  0  0
 23 19  1  0  0  0  0
 25 21  1  0  0  0  0
 26 22  1  0  0  0  0
 27 30  1  0  0  0  0
 27 29  1  0  0  0  0
 28 27  1  0  0  0  0
 31 32  1  6  0  0  0
 31  1  1  0  0  0  0
 31 33  1  0  0  0  0
 33 35  1  0  0  0  0
 33 34  1  0  0  0  0
 36 33  1  0  0  0  0
 37 39  1  0  0  0  0
 37 31  1  0  0  0  0
 38 37  1  0  0  0  0
 40 37  1  0  0  0  0
 41 40  2  0  0  0  0
 42 41  1  0  0  0  0
 43 42  2  0  0  0  0
 43 44  1  0  0  0  0
 44 46  1  0  0  0  0
 44 40  1  0  0  0  0
 45 43  1  0  0  0  0
 46 49  1  0  0  0  0
 47 46  1  0  0  0  0
 48 46  1  0  0  0  0
M  END
>  <MODEL>
11

>  <REMARK>
 VINA RESULT:    -8.371      5.529      9.169
 INTER + INTRA:         -12.039
 INTER:                 -10.795
 INTRA:                  -1.244
 UNBOUND:                -0.243
  Name = 
  8 active torsions:
  status: ('A' for Active; 'I' for Inactive)
    1  A    between atoms: C_1  and  C_2
    2  A    between atoms: C_2  and  C_3
    3  A    between atoms: C_2  and  C_10
    4  A    between atoms: C_3  and  C_4
    5  A    between atoms: N_8  and  C_9
    6  A    between atoms: C_14  and  N_15
    7  A    between atoms: C_16  and  C_18
    8  A    between atoms: C_23  and  C_24
                            x       y       z     vdW  Elec       q    Type
                         _______ _______ _______ _____ _____    ______ ____

>  <TORSDO>
F 8

$$$$
=
 OpenBabel07192307433D

 49 52  0  0  1  0  0  0  0  0999 V2000
   -0.7600   12.6660   19.6090 C   0  0  0  0  0  0  0  0  0  0  0  0
   -2.0620   12.6180   19.0950 C   0  0  0  0  0  0  0  0  0  0  0  0
   -2.4910   11.5090   18.3680 C   0  0  0  0  0  0  0  0  0  0  0  0
   -1.6270   10.4360   18.1370 C   0  0  0  0  0  0  0  0  0  0  0  0
   -0.3220   10.4630   18.6280 C   0  0  0  0  0  0  0  0  0  0  0  0
    0.1010   11.5810   19.3620 C   0  0  0  0  0  0  0  0  0  0  0  0
   -2.7570   13.4380   19.2530 H   0  0  0  0  0  0  0  0  0  0  0  0
   -3.5050   11.4740   17.9760 H   0  0  0  0  0  0  0  0  0  0  0  0
   -2.0070    9.5930   17.5690 H   0  0  0  0  0  0  0  0  0  0  0  0
    1.1160   11.6210   19.7500 H   0  0  0  0  0  0  0  0  0  0  0  0
    0.6160    9.4250   18.4400 N   0  0  0  0  0  0  0  0  0  0  0  0
    1.3240    8.7490   19.4140 C   0  0  0  0  0  0  0  0  0  0  0  0
    1.2300    8.8970   20.6270 O   0  0  0  0  0  0  0  0  0  0  0  0
    0.7430    9.1280   17.4830 H   0  0  0  0  0  0  0  0  0  0  0  0
    2.2580    7.7300   18.8710 C   0  0  0  0  0  0  0  0  0  0  0  0
    3.1320    7.8040   17.8390 C   0  0  0  0  0  0  0  0  0  0  0  0
    3.8730    6.5450   17.7130 C   0  0  0  0  0  0  0  0  0  0  0  0
    5.0470    6.2730   16.5270 Cl  0  0  0  0  0  0  0  0  0  0  0  0
    3.4660    5.7100   18.6710 C   0  0  0  0  0  0  0  0  0  0  0  0
    3.6520    4.4040   19.2270 C   0  0  0  0  0  0  0  0  0  0  0  0
    2.7850    4.3440   20.2660 C   0  0  0  0  0  0  0  0  0  0  0  0
    2.0380    5.6000   20.3900 C   0  0  0  0  0  0  0  0  0  0  0  0
    2.4540    6.4200   19.4210 C   0  0  0  0  0  0  0  0  0  0  0  0
    3.3180    8.6520   17.1980 H   0  0  0  0  0  0  0  0  0  0  0  0
    2.6440    3.5020   20.9300 H   0  0  0  0  0  0  0  0  0  0  0  0
    1.2900    5.8100   21.1410 H   0  0  0  0  0  0  0  0  0  0  0  0
    4.6050    3.3920   18.7200 C   0  0  0  0  0  0  0  0  0  0  0  0
    4.2480    2.9190   17.4990 F   0  0  0  0  0  0  0  0  0  0  0  0
    4.7040    2.3230   19.5500 F   0  0  0  0  0  0  0  0  0  0  0  0
    5.8600    3.8970   18.5880 F   0  0  0  0  0  0  0  0  0  0  0  0
   -0.2460   13.8660   20.3930 C   0  0  2  0  0  0  0  0  0  0  0  0
   -1.0030   14.6590   20.3310 H   0  0  0  0  0  0  0  0  0  0  0  0
    1.0330   14.4410   19.7670 C   0  0  0  0  0  0  0  0  0  0  0  0
    1.3720   13.8240   18.9290 H   0  0  0  0  0  0  0  0  0  0  0  0
    0.8830   15.4580   19.3880 H   0  0  0  0  0  0  0  0  0  0  0  0
    1.8470   14.4740   20.5010 H   0  0  0  0  0  0  0  0  0  0  0  0
   -0.0490   13.4870   21.8750 C   0  0  0  0  0  0  0  0  0  0  0  0
    0.4840   14.2840   22.4060 H   0  0  0  0  0  0  0  0  0  0  0  0
    0.5900   12.5960   21.9460 H   0  0  0  0  0  0  0  0  0  0  0  0
   -1.3410   13.1620   22.5470 C   0  0  0  0  0  0  0  0  0  0  0  0
   -2.3190   14.0110   22.7960 N   0  0  0  0  0  0  0  0  0  0  0  0
   -3.3280   13.3300   23.4310 N   0  0  0  0  0  0  0  0  0  0  0  0
   -2.9500   12.0800   23.5510 C   0  0  0  0  0  0  0  0  0  0  0  0
   -1.7110   11.9270   23.0100 N   0  0  0  0  0  0  0  0  0  0  0  0
   -3.5210   11.2830   24.0050 H   0  0  0  0  0  0  0  0  0  0  0  0
   -0.9590   10.7040   22.9510 C   0  0  0  0  0  0  0  0  0  0  0  0
   -0.1020   10.8530   22.2900 H   0  0  0  0  0  0  0  0  0  0  0  0
   -1.5910    9.9020   22.5600 H   0  0  0  0  0  0  0  0  0  0  0  0
   -0.6260   10.4480   23.9610 H   0  0  0  0  0  0  0  0  0  0  0  0
  1 31  1  0  0  0  0
  2  7  1  0  0  0  0
  2  1  2  0  0  0  0
  3  2  1  0  0  0  0
  4  3  2  0  0  0  0
  4  5  1  0  0  0  0
  5  6  2  0  0  0  0
  6  1  1  0  0  0  0
  6 10  1  0  0  0  0
  8  3  1  0  0  0  0
  9  4  1  0  0  0  0
 11  5  1  0  0  0  0
 11 12  1  0  0  0  0
 12 13  2  0  0  0  0
 14 11  1  0  0  0  0
 15 12  1  0  0  0  0
 15 23  1  0  0  0  0
 16 15  2  0  0  0  0
 17 16  1  0  0  0  0
 17 19  2  0  0  0  0
 18 17  1  0  0  0  0
 19 20  1  0  0  0  0
 19 23  1  0  0  0  0
 20 21  2  0  0  0  0
 21 22  1  0  0  0  0
 21 25  1  0  0  0  0
 22 26  1  0  0  0  0
 23 22  2  0  0  0  0
 24 16  1  0  0  0  0
 27 20  1  0  0  0  0
 27 29  1  0  0  0  0
 28 27  1  0  0  0  0
 30 27  1  0  0  0  0
 31 32  1  6  0  0  0
 31 37  1  0  0  0  0
 33 31  1  0  0  0  0
 33 36  1  0  0  0  0
 34 33  1  0  0  0  0
 35 33  1  0  0  0  0
 37 39  1  0  0  0  0
 37 38  1  0  0  0  0
 37 40  1  0  0  0  0
 40 41  2  0  0  0  0
 40 44  1  0  0  0  0
 41 42  1  0  0  0  0
 42 43  2  0  0  0  0
 43 45  1  0  0  0  0
 44 43  1  0  0  0  0
 46 44  1  0  0  0  0
 46 49  1  0  0  0  0
 47 46  1  0  0  0  0
 48 46  1  0  0  0  0
M  END
>  <MODEL>
12

>  <REMARK>
 VINA RESULT:    -8.272      2.950      4.553
 INTER + INTRA:         -11.901
 INTER:                 -10.677
 INTRA:                  -1.224
 UNBOUND:                -0.243
  Name = 
  8 active torsions:
  status: ('A' for Active; 'I' for Inactive)
    1  A    between atoms: C_1  and  C_2
    2  A    between atoms: C_2  and  C_3
    3  A    between atoms: C_2  and  C_10
    4  A    between atoms: C_3  and  C_4
    5  A    between atoms: N_8  and  C_9
    6  A    between atoms: C_14  and  N_15
    7  A    between atoms: C_16  and  C_18
    8  A    between atoms: C_23  and  C_24
                            x       y       z     vdW  Elec       q    Type
                         _______ _______ _______ _____ _____    ______ ____

>  <TORSDO>
F 8

$$$$
=
 OpenBabel07192307433D

 49 52  0  0  1  0  0  0  0  0999 V2000
    2.6980    3.3510   19.0170 C   0  0  0  0  0  0  0  0  0  0  0  0
    2.7990    2.5630   20.1700 C   0  0  0  0  0  0  0  0  0  0  0  0
    2.4250    3.0790   21.4100 C   0  0  0  0  0  0  0  0  0  0  0  0
    1.9510    4.3880   21.5190 C   0  0  0  0  0  0  0  0  0  0  0  0
    1.8500    5.1970   20.3880 C   0  0  0  0  0  0  0  0  0  0  0  0
    2.2250    4.6700   19.1430 C   0  0  0  0  0  0  0  0  0  0  0  0
    3.1690    1.5420   20.1200 H   0  0  0  0  0  0  0  0  0  0  0  0
    2.5010    2.4610   22.3020 H   0  0  0  0  0  0  0  0  0  0  0  0
    1.6680    4.7430   22.5040 H   0  0  0  0  0  0  0  0  0  0  0  0
    2.1550    5.2880   18.2500 H   0  0  0  0  0  0  0  0  0  0  0  0
    1.3840    6.5290   20.4060 N   0  0  0  0  0  0  0  0  0  0  0  0
    1.9070    7.6100   19.7260 C   0  0  0  0  0  0  0  0  0  0  0  0
    2.8490    7.5980   18.9420 O   0  0  0  0  0  0  0  0  0  0  0  0
    0.5470    6.6850   20.9520 H   0  0  0  0  0  0  0  0  0  0  0  0
    1.1930    8.8840   19.9920 C   0  0  0  0  0  0  0  0  0  0  0  0
    0.9580    9.9430   19.1810 C   0  0  0  0  0  0  0  0  0  0  0  0
    0.1630   10.9540   19.8870 C   0  0  0  0  0  0  0  0  0  0  0  0
   -0.3140   12.4160   19.1850 Cl  0  0  0  0  0  0  0  0  0  0  0  0
   -0.0980   10.5100   21.1180 C   0  0  0  0  0  0  0  0  0  0  0  0
   -0.7560   10.8280   22.3500 C   0  0  0  0  0  0  0  0  0  0  0  0
   -0.5280    9.7580   23.1490 C   0  0  0  0  0  0  0  0  0  0  0  0
    0.2710    8.7480   22.4470 C   0  0  0  0  0  0  0  0  0  0  0  0
    0.5280    9.2120   21.2210 C   0  0  0  0  0  0  0  0  0  0  0  0
    1.2580   10.0580   18.1510 H   0  0  0  0  0  0  0  0  0  0  0  0
   -0.8770    9.6370   24.1660 H   0  0  0  0  0  0  0  0  0  0  0  0
    0.5850    7.8010   22.8620 H   0  0  0  0  0  0  0  0  0  0  0  0
   -1.5040   12.0760   22.6170 C   0  0  0  0  0  0  0  0  0  0  0  0
   -0.6790   13.1420   22.7770 F   0  0  0  0  0  0  0  0  0  0  0  0
   -2.2630   11.9870   23.7380 F   0  0  0  0  0  0  0  0  0  0  0  0
   -2.3500   12.3900   21.6000 F   0  0  0  0  0  0  0  0  0  0  0  0
    3.1120    2.8320   17.6460 C   0  0  2  0  0  0  0  0  0  0  0  0
    2.2120    2.4560   17.1410 H   0  0  0  0  0  0  0  0  0  0  0  0
    4.0710    1.6380   17.7630 C   0  0  0  0  0  0  0  0  0  0  0  0
    5.0960    1.9320   17.5130 H   0  0  0  0  0  0  0  0  0  0  0  0
    4.0850    1.2210   18.7750 H   0  0  0  0  0  0  0  0  0  0  0  0
    3.7830    0.8360   17.0730 H   0  0  0  0  0  0  0  0  0  0  0  0
    3.7080    3.9780   16.8020 C   0  0  0  0  0  0  0  0  0  0  0  0
    3.0990    4.8830   16.9060 H   0  0  0  0  0  0  0  0  0  0  0  0
    3.6720    3.7090   15.7380 H   0  0  0  0  0  0  0  0  0  0  0  0
    5.1340    4.2440   17.1460 C   0  0  0  0  0  0  0  0  0  0  0  0
    5.5930    4.5880   18.3340 N   0  0  0  0  0  0  0  0  0  0  0  0
    6.9540    4.7480   18.2380 N   0  0  0  0  0  0  0  0  0  0  0  0
    7.2990    4.4930   16.9990 C   0  0  0  0  0  0  0  0  0  0  0  0
    6.1920    4.1710   16.2780 N   0  0  0  0  0  0  0  0  0  0  0  0
    8.3010    4.5270   16.5980 H   0  0  0  0  0  0  0  0  0  0  0  0
    6.1610    3.8290   14.8820 C   0  0  0  0  0  0  0  0  0  0  0  0
    7.1410    4.0400   14.4490 H   0  0  0  0  0  0  0  0  0  0  0  0
    5.3980    4.4270   14.3740 H   0  0  0  0  0  0  0  0  0  0  0  0
    5.9170    2.7670   14.7860 H   0  0  0  0  0  0  0  0  0  0  0  0
  1  6  2  0  0  0  0
  1  2  1  0  0  0  0
  2  3  2  0  0  0  0
  3  4  1  0  0  0  0
  3  8  1  0  0  0  0
  4  9  1  0  0  0  0
  5 11  1  0  0  0  0
  5  4  2  0  0  0  0
  6  5  1  0  0  0  0
  7  2  1  0  0  0  0
 10  6  1  0  0  0  0
 11 14  1  0  0  0  0
 12 15  1  0  0  0  0
 12 11  1  0  0  0  0
 13 12  2  0  0  0  0
 15 23  1  0  0  0  0
 16 17  1  0  0  0  0
 16 15  2  0  0  0  0
 17 19  2  0  0  0  0
 18 17  1  0  0  0  0
 19 23  1  0  0  0  0
 19 20  1  0  0  0  0
 20 27  1  0  0  0  0
 20 21  2  0  0  0  0
 21 25  1  0  0  0  0
 22 26  1  0  0  0  0
 22 21  1  0  0  0  0
 23 22  2  0  0  0  0
 24 16  1  0  0  0  0
 27 28  1  0  0  0  0
 27 29  1  0  0  0  0
 30 27  1  0  0  0  0
 31 32  1  6  0  0  0
 31 33  1  0  0  0  0
 31  1  1  0  0  0  0
 33 35  1  0  0  0  0
 34 33  1  0  0  0  0
 36 33  1  0  0  0  0
 37 38  1  0  0  0  0
 37 40  1  0  0  0  0
 37 31  1  0  0  0  0
 39 37  1  0  0  0  0
 40 41  2  0  0  0  0
 42 41  1  0  0  0  0
 43 42  2  0  0  0  0
 44 43  1  0  0  0  0
 44 40  1  0  0  0  0
 45 43  1  0  0  0  0
 46 44  1  0  0  0  0
 47 46  1  0  0  0  0
 48 46  1  0  0  0  0
 49 46  1  0  0  0  0
M  END
>  <MODEL>
13

>  <REMARK>
 VINA RESULT:    -8.236      5.666      9.532
 INTER + INTRA:         -11.849
 INTER:                 -11.336
 INTRA:                  -0.514
 UNBOUND:                -0.243
  Name = 
  8 active torsions:
  status: ('A' for Active; 'I' for Inactive)
    1  A    between atoms: C_1  and  C_2
    2  A    between atoms: C_2  and  C_3
    3  A    between atoms: C_2  and  C_10
    4  A    between atoms: C_3  and  C_4
    5  A    between atoms: N_8  and  C_9
    6  A    between atoms: C_14  and  N_15
    7  A    between atoms: C_16  and  C_18
    8  A    between atoms: C_23  and  C_24
                            x       y       z     vdW  Elec       q    Type
                         _______ _______ _______ _____ _____    ______ ____

>  <TORSDO>
F 8

$$$$
=
 OpenBabel07192307433D

 49 52  0  0  1  0  0  0  0  0999 V2000
   -0.4330   11.9860   21.8730 C   0  0  0  0  0  0  0  0  0  0  0  0
   -1.1280   11.5200   22.9960 C   0  0  0  0  0  0  0  0  0  0  0  0
   -1.0450   10.1800   23.3690 C   0  0  0  0  0  0  0  0  0  0  0  0
   -0.2730    9.2840   22.6250 C   0  0  0  0  0  0  0  0  0  0  0  0
    0.4210    9.7200   21.4970 C   0  0  0  0  0  0  0  0  0  0  0  0
    0.3350   11.0710   21.1300 C   0  0  0  0  0  0  0  0  0  0  0  0
   -1.7410   12.1910   23.5920 H   0  0  0  0  0  0  0  0  0  0  0  0
   -1.5830    9.8240   24.2440 H   0  0  0  0  0  0  0  0  0  0  0  0
   -0.2360    8.2520   22.9570 H   0  0  0  0  0  0  0  0  0  0  0  0
    0.8680   11.4280   20.2510 H   0  0  0  0  0  0  0  0  0  0  0  0
    1.2220    8.8850   20.6880 N   0  0  0  0  0  0  0  0  0  0  0  0
    1.3270    8.9010   19.3120 C   0  0  0  0  0  0  0  0  0  0  0  0
    0.7760    9.6810   18.5430 O   0  0  0  0  0  0  0  0  0  0  0  0
    1.8090    8.2340   21.1910 H   0  0  0  0  0  0  0  0  0  0  0  0
    2.2400    7.8630   18.7720 C   0  0  0  0  0  0  0  0  0  0  0  0
    3.1180    7.9170   17.7430 C   0  0  0  0  0  0  0  0  0  0  0  0
    3.8330    6.6420   17.6200 C   0  0  0  0  0  0  0  0  0  0  0  0
    5.0040    6.3440   16.4370 Cl  0  0  0  0  0  0  0  0  0  0  0  0
    3.4040    5.8170   18.5770 C   0  0  0  0  0  0  0  0  0  0  0  0
    3.5600    4.5070   19.1340 C   0  0  0  0  0  0  0  0  0  0  0  0
    2.6890    4.4670   20.1710 C   0  0  0  0  0  0  0  0  0  0  0  0
    1.9690    5.7390   20.2920 C   0  0  0  0  0  0  0  0  0  0  0  0
    2.4060    6.5480   19.3230 C   0  0  0  0  0  0  0  0  0  0  0  0
    3.3250    8.7610   17.1020 H   0  0  0  0  0  0  0  0  0  0  0  0
    2.5270    3.6280   20.8340 H   0  0  0  0  0  0  0  0  0  0  0  0
    1.2230    5.9650   21.0400 H   0  0  0  0  0  0  0  0  0  0  0  0
    4.4930    3.4750   18.6300 C   0  0  0  0  0  0  0  0  0  0  0  0
    4.1430    3.0260   17.3980 F   0  0  0  0  0  0  0  0  0  0  0  0
    4.5470    2.3930   19.4480 F   0  0  0  0  0  0  0  0  0  0  0  0
    5.7640    3.9450   18.5250 F   0  0  0  0  0  0  0  0  0  0  0  0
   -0.5100   13.4390   21.4210 C   0  0  2  0  0  0  0  0  0  0  0  0
    0.2920   13.6080   20.6900 H   0  0  0  0  0  0  0  0  0  0  0  0
   -0.2440   14.4050   22.5850 C   0  0  0  0  0  0  0  0  0  0  0  0
   -0.7150   15.3760   22.4050 H   0  0  0  0  0  0  0  0  0  0  0  0
   -0.6320   14.0210   23.5340 H   0  0  0  0  0  0  0  0  0  0  0  0
    0.8310   14.5800   22.7090 H   0  0  0  0  0  0  0  0  0  0  0  0
   -1.8660   13.7110   20.7380 C   0  0  0  0  0  0  0  0  0  0  0  0
   -1.9350   14.7610   20.4320 H   0  0  0  0  0  0  0  0  0  0  0  0
   -2.6800   13.5510   21.4570 H   0  0  0  0  0  0  0  0  0  0  0  0
   -2.1050   12.7960   19.5840 C   0  0  0  0  0  0  0  0  0  0  0  0
   -3.1180   11.9610   19.4560 N   0  0  0  0  0  0  0  0  0  0  0  0
   -2.9760   11.2940   18.2630 N   0  0  0  0  0  0  0  0  0  0  0  0
   -1.8860   11.7390   17.6860 C   0  0  0  0  0  0  0  0  0  0  0  0
   -1.3070   12.6830   18.4760 N   0  0  0  0  0  0  0  0  0  0  0  0
   -1.4950   11.4170   16.7320 H   0  0  0  0  0  0  0  0  0  0  0  0
   -0.0970   13.4020   18.1880 C   0  0  0  0  0  0  0  0  0  0  0  0
   -0.3060   14.1400   17.4110 H   0  0  0  0  0  0  0  0  0  0  0  0
    0.6700   12.7050   17.8370 H   0  0  0  0  0  0  0  0  0  0  0  0
    0.2460   13.8920   19.1030 H   0  0  0  0  0  0  0  0  0  0  0  0
  1  2  1  0  0  0  0
  2  3  2  0  0  0  0
  2  7  1  0  0  0  0
  3  8  1  0  0  0  0
  4  9  1  0  0  0  0
  4  3  1  0  0  0  0
  5  4  2  0  0  0  0
  6  5  1  0  0  0  0
  6  1  2  0  0  0  0
 10  6  1  0  0  0  0
 11 14  1  0  0  0  0
 11  5  1  0  0  0  0
 12 11  1  0  0  0  0
 13 12  2  0  0  0  0
 15 12  1  0  0  0  0
 15 23  1  0  0  0  0
 16 15  2  0  0  0  0
 17 16  1  0  0  0  0
 17 19  2  0  0  0  0
 18 17  1  0  0  0  0
 19 20  1  0  0  0  0
 19 23  1  0  0  0  0
 20 21  2  0  0  0  0
 21 22  1  0  0  0  0
 21 25  1  0  0  0  0
 22 26  1  0  0  0  0
 23 22  2  0  0  0  0
 24 16  1  0  0  0  0
 27 20  1  0  0  0  0
 27 29  1  0  0  0  0
 28 27  1  0  0  0  0
 30 27  1  0  0  0  0
 31 32  1  6  0  0  0
 31  1  1  0  0  0  0
 31 33  1  0  0  0  0
 33 36  1  0  0  0  0
 33 35  1  0  0  0  0
 34 33  1  0  0  0  0
 37 31  1  0  0  0  0
 37 39  1  0  0  0  0
 38 37  1  0  0  0  0
 40 37  1  0  0  0  0
 41 40  2  0  0  0  0
 42 41  1  0  0  0  0
 43 42  2  0  0  0  0
 43 44  1  0  0  0  0
 44 40  1  0  0  0  0
 45 43  1  0  0  0  0
 46 44  1  0  0  0  0
 46 49  1  0  0  0  0
 47 46  1  0  0  0  0
 48 46  1  0  0  0  0
M  END
>  <MODEL>
14

>  <REMARK>
 VINA RESULT:    -8.227      2.302      3.451
 INTER + INTRA:         -11.837
 INTER:                 -11.186
 INTRA:                  -0.650
 UNBOUND:                -0.243
  Name = 
  8 active torsions:
  status: ('A' for Active; 'I' for Inactive)
    1  A    between atoms: C_1  and  C_2
    2  A    between atoms: C_2  and  C_3
    3  A    between atoms: C_2  and  C_10
    4  A    between atoms: C_3  and  C_4
    5  A    between atoms: N_8  and  C_9
    6  A    between atoms: C_14  and  N_15
    7  A    between atoms: C_16  and  C_18
    8  A    between atoms: C_23  and  C_24
                            x       y       z     vdW  Elec       q    Type
                         _______ _______ _______ _____ _____    ______ ____

>  <TORSDO>
F 8

$$$$
=
 OpenBabel07192307433D

 49 52  0  0  1  0  0  0  0  0999 V2000
    2.7290    3.2560   19.0020 C   0  0  0  0  0  0  0  0  0  0  0  0
    2.9390    2.3400   20.0400 C   0  0  0  0  0  0  0  0  0  0  0  0
    2.5720    2.6610   21.3460 C   0  0  0  0  0  0  0  0  0  0  0  0
    1.9960    3.8990   21.6360 C   0  0  0  0  0  0  0  0  0  0  0  0
    1.7840    4.8330   20.6230 C   0  0  0  0  0  0  0  0  0  0  0  0
    2.1530    4.5020   19.3110 C   0  0  0  0  0  0  0  0  0  0  0  0
    3.3910    1.3700   19.8480 H   0  0  0  0  0  0  0  0  0  0  0  0
    2.7330    1.9440   22.1480 H   0  0  0  0  0  0  0  0  0  0  0  0
    1.7220    4.1010   22.6670 H   0  0  0  0  0  0  0  0  0  0  0  0
    1.9980    5.2190   18.5080 H   0  0  0  0  0  0  0  0  0  0  0  0
    1.2100    6.1060   20.8260 N   0  0  0  0  0  0  0  0  0  0  0  0
    1.6860    7.3220   20.3790 C   0  0  0  0  0  0  0  0  0  0  0  0
    2.6750    7.5100   19.6800 O   0  0  0  0  0  0  0  0  0  0  0  0
    0.3290    6.1070   21.3220 H   0  0  0  0  0  0  0  0  0  0  0  0
    0.8530    8.4780   20.7960 C   0  0  0  0  0  0  0  0  0  0  0  0
    0.3080    8.7750   21.9990 C   0  0  0  0  0  0  0  0  0  0  0  0
   -0.3980   10.0590   21.9310 C   0  0  0  0  0  0  0  0  0  0  0  0
   -1.2080   10.7450   23.2470 Cl  0  0  0  0  0  0  0  0  0  0  0  0
   -0.2740   10.5510   20.6970 C   0  0  0  0  0  0  0  0  0  0  0  0
   -0.6140   11.6530   19.8480 C   0  0  0  0  0  0  0  0  0  0  0  0
   -0.0520   11.3550   18.6520 C   0  0  0  0  0  0  0  0  0  0  0  0
    0.6500   10.0680   18.7170 C   0  0  0  0  0  0  0  0  0  0  0  0
    0.5090    9.5890   19.9560 C   0  0  0  0  0  0  0  0  0  0  0  0
    0.3830    8.2040   22.9120 H   0  0  0  0  0  0  0  0  0  0  0  0
   -0.0970   11.9620   17.7580 H   0  0  0  0  0  0  0  0  0  0  0  0
    1.1840    9.6070   17.8990 H   0  0  0  0  0  0  0  0  0  0  0  0
   -1.4100   12.8300   20.2610 C   0  0  0  0  0  0  0  0  0  0  0  0
   -0.9710   13.3600   21.4310 F   0  0  0  0  0  0  0  0  0  0  0  0
   -2.7220   12.5250   20.4300 F   0  0  0  0  0  0  0  0  0  0  0  0
   -1.3600   13.8280   19.3400 F   0  0  0  0  0  0  0  0  0  0  0  0
    3.1310    2.9530   17.5640 C   0  0  2  0  0  0  0  0  0  0  0  0
    2.2260    2.6630   17.0140 H   0  0  0  0  0  0  0  0  0  0  0  0
    4.0840    1.7500   17.4890 C   0  0  0  0  0  0  0  0  0  0  0  0
    5.1170    2.0770   17.3290 H   0  0  0  0  0  0  0  0  0  0  0  0
    4.0660    1.1540   18.4080 H   0  0  0  0  0  0  0  0  0  0  0  0
    3.8160    1.0900   16.6560 H   0  0  0  0  0  0  0  0  0  0  0  0
    3.7290    4.2120   16.9040 C   0  0  0  0  0  0  0  0  0  0  0  0
    3.1670    5.1030   17.2040 H   0  0  0  0  0  0  0  0  0  0  0  0
    3.6230    4.1410   15.8130 H   0  0  0  0  0  0  0  0  0  0  0  0
    5.1820    4.3650   17.2010 C   0  0  0  0  0  0  0  0  0  0  0  0
    5.7060    4.6530   18.3760 N   0  0  0  0  0  0  0  0  0  0  0  0
    7.0710    4.7120   18.2340 N   0  0  0  0  0  0  0  0  0  0  0  0
    7.3540    4.4530   16.9800 C   0  0  0  0  0  0  0  0  0  0  0  0
    6.2010    4.2270   16.2940 N   0  0  0  0  0  0  0  0  0  0  0  0
    8.3410    4.4190   16.5440 H   0  0  0  0  0  0  0  0  0  0  0  0
    6.0960    3.9130   14.8960 C   0  0  0  0  0  0  0  0  0  0  0  0
    5.8790    2.8470   14.7920 H   0  0  0  0  0  0  0  0  0  0  0  0
    7.0400    4.1460   14.3950 H   0  0  0  0  0  0  0  0  0  0  0  0
    5.2930    4.5140   14.4600 H   0  0  0  0  0  0  0  0  0  0  0  0
  1  6  2  0  0  0  0
  1  2  1  0  0  0  0
  2  3  2  0  0  0  0
  3  4  1  0  0  0  0
  3  8  1  0  0  0  0
  4  9  1  0  0  0  0
  5 11  1  0  0  0  0
  5  4  2  0  0  0  0
  6  5  1  0  0  0  0
  7  2  1  0  0  0  0
 10  6  1  0  0  0  0
 11 14  1  0  0  0  0
 12 15  1  0  0  0  0
 12 11  1  0  0  0  0
 13 12  2  0  0  0  0
 15 16  1  0  0  0  0
 16 24  1  0  0  0  0
 17 16  2  0  0  0  0
 17 18  1  0  0  0  0
 19 17  1  0  0  0  0
 20 27  1  0  0  0  0
 20 19  2  0  0  0  0
 21 22  2  0  0  0  0
 21 20  1  0  0  0  0
 22 23  1  0  0  0  0
 23 19  1  0  0  0  0
 23 15  2  0  0  0  0
 25 21  1  0  0  0  0
 26 22  1  0  0  0  0
 27 29  1  0  0  0  0
 27 28  1  0  0  0  0
 30 27  1  0  0  0  0
 31 32  1  6  0  0  0
 31  1  1  0  0  0  0
 33 31  1  0  0  0  0
 33 35  1  0  0  0  0
 34 33  1  0  0  0  0
 36 33  1  0  0  0  0
 37 40  1  0  0  0  0
 37 38  1  0  0  0  0
 37 31  1  0  0  0  0
 39 37  1  0  0  0  0
 40 41  2  0  0  0  0
 42 41  1  0  0  0  0
 43 42  2  0  0  0  0
 44 43  1  0  0  0  0
 44 40  1  0  0  0  0
 45 43  1  0  0  0  0
 46 44  1  0  0  0  0
 47 46  1  0  0  0  0
 48 46  1  0  0  0  0
 49 46  1  0  0  0  0
M  END
>  <MODEL>
15

>  <REMARK>
 VINA RESULT:    -8.224      5.491      9.322
 INTER + INTRA:         -11.833
 INTER:                 -10.914
 INTRA:                  -0.919
 UNBOUND:                -0.243
  Name = 
  8 active torsions:
  status: ('A' for Active; 'I' for Inactive)
    1  A    between atoms: C_1  and  C_2
    2  A    between atoms: C_2  and  C_3
    3  A    between atoms: C_2  and  C_10
    4  A    between atoms: C_3  and  C_4
    5  A    between atoms: N_8  and  C_9
    6  A    between atoms: C_14  and  N_15
    7  A    between atoms: C_16  and  C_18
    8  A    between atoms: C_23  and  C_24
                            x       y       z     vdW  Elec       q    Type
                         _______ _______ _______ _____ _____    ______ ____

>  <TORSDO>
F 8

$$$$
=
 OpenBabel07192307433D

 49 52  0  0  1  0  0  0  0  0999 V2000
    4.8210    4.1150   16.9480 C   0  0  0  0  0  0  0  0  0  0  0  0
    4.1310    2.8970   16.8960 C   0  0  0  0  0  0  0  0  0  0  0  0
    2.8560    2.7860   17.4490 C   0  0  0  0  0  0  0  0  0  0  0  0
    2.2530    3.8850   18.0650 C   0  0  0  0  0  0  0  0  0  0  0  0
    2.9220    5.1070   18.1390 C   0  0  0  0  0  0  0  0  0  0  0  0
    4.2030    5.2110   17.5780 C   0  0  0  0  0  0  0  0  0  0  0  0
    4.5750    2.0220   16.4290 H   0  0  0  0  0  0  0  0  0  0  0  0
    2.3230    1.8400   17.4010 H   0  0  0  0  0  0  0  0  0  0  0  0
    1.2580    3.7520   18.4760 H   0  0  0  0  0  0  0  0  0  0  0  0
    4.7410    6.1550   17.6300 H   0  0  0  0  0  0  0  0  0  0  0  0
    2.3890    6.2650   18.7440 N   0  0  0  0  0  0  0  0  0  0  0  0
    2.0440    6.4360   20.0700 C   0  0  0  0  0  0  0  0  0  0  0  0
    2.1820    5.6220   20.9750 O   0  0  0  0  0  0  0  0  0  0  0  0
    2.2950    7.0650   18.1330 H   0  0  0  0  0  0  0  0  0  0  0  0
    1.4800    7.7770   20.3690 C   0  0  0  0  0  0  0  0  0  0  0  0
    0.9140    8.2550   21.5020 C   0  0  0  0  0  0  0  0  0  0  0  0
    0.5480    9.6650   21.3290 C   0  0  0  0  0  0  0  0  0  0  0  0
   -0.1900   10.5890   22.5370 Cl  0  0  0  0  0  0  0  0  0  0  0  0
    0.9010   10.0500   20.1010 C   0  0  0  0  0  0  0  0  0  0  0  0
    0.9170   11.1580   19.1930 C   0  0  0  0  0  0  0  0  0  0  0  0
    1.4980   10.6740   18.0690 C   0  0  0  0  0  0  0  0  0  0  0  0
    1.8590    9.2630   18.2380 C   0  0  0  0  0  0  0  0  0  0  0  0
    1.4930    8.8940   19.4690 C   0  0  0  0  0  0  0  0  0  0  0  0
    0.7640    7.7290   22.4330 H   0  0  0  0  0  0  0  0  0  0  0  0
    1.6840   11.2290   17.1590 H   0  0  0  0  0  0  0  0  0  0  0  0
    2.3390    8.6480   17.4920 H   0  0  0  0  0  0  0  0  0  0  0  0
    0.3930   12.5090   19.4910 C   0  0  0  0  0  0  0  0  0  0  0  0
   -0.8820   12.4730   19.9530 F   0  0  0  0  0  0  0  0  0  0  0  0
    0.3980   13.3120   18.3970 F   0  0  0  0  0  0  0  0  0  0  0  0
    1.1310   13.1430   20.4400 F   0  0  0  0  0  0  0  0  0  0  0  0
    6.2220    4.2740   16.3730 C   0  0  2  0  0  0  0  0  0  0  0  0
    6.5640    3.2860   16.0370 H   0  0  0  0  0  0  0  0  0  0  0  0
    7.2210    4.7340   17.4460 C   0  0  0  0  0  0  0  0  0  0  0  0
    7.1090    4.1470   18.3630 H   0  0  0  0  0  0  0  0  0  0  0  0
    8.2590    4.6280   17.1110 H   0  0  0  0  0  0  0  0  0  0  0  0
    7.0580    5.7860   17.7070 H   0  0  0  0  0  0  0  0  0  0  0  0
    6.1930    5.2250   15.1590 C   0  0  0  0  0  0  0  0  0  0  0  0
    6.9900    5.9730   15.2410 H   0  0  0  0  0  0  0  0  0  0  0  0
    5.2500    5.7870   15.1540 H   0  0  0  0  0  0  0  0  0  0  0  0
    6.2780    4.4860   13.8660 C   0  0  0  0  0  0  0  0  0  0  0  0
    5.4490    3.5460   13.4560 N   0  0  0  0  0  0  0  0  0  0  0  0
    5.8700    3.1100   12.2230 N   0  0  0  0  0  0  0  0  0  0  0  0
    6.9410    3.7950   11.9030 C   0  0  0  0  0  0  0  0  0  0  0  0
    7.2340    4.6710   12.9020 N   0  0  0  0  0  0  0  0  0  0  0  0
    7.5130    3.6940   10.9930 H   0  0  0  0  0  0  0  0  0  0  0  0
    8.3360    5.5940   12.9230 C   0  0  0  0  0  0  0  0  0  0  0  0
    8.1670    6.3550   12.1580 H   0  0  0  0  0  0  0  0  0  0  0  0
    9.2670    5.0600   12.7110 H   0  0  0  0  0  0  0  0  0  0  0  0
    8.3930    6.0490   13.9150 H   0  0  0  0  0  0  0  0  0  0  0  0
  1  6  1  0  0  0  0
  2  1  2  0  0  0  0
  2  3  1  0  0  0  0
  3  4  2  0  0  0  0
  4  5  1  0  0  0  0
  4  9  1  0  0  0  0
  5 11  1  0  0  0  0
  6 10  1  0  0  0  0
  6  5  2  0  0  0  0
  7  2  1  0  0  0  0
  8  3  1  0  0  0  0
 11 12  1  0  0  0  0
 12 15  1  0  0  0  0
 12 13  2  0  0  0  0
 14 11  1  0  0  0  0
 15 16  1  0  0  0  0
 16 24  1  0  0  0  0
 17 16  2  0  0  0  0
 17 18  1  0  0  0  0
 19 17  1  0  0  0  0
 20 27  1  0  0  0  0
 20 19  2  0  0  0  0
 21 22  2  0  0  0  0
 21 20  1  0  0  0  0
 22 23  1  0  0  0  0
 23 19  1  0  0  0  0
 23 15  2  0  0  0  0
 25 21  1  0  0  0  0
 26 22  1  0  0  0  0
 27 28  1  0  0  0  0
 27 30  1  0  0  0  0
 29 27  1  0  0  0  0
 31 32  1  6  0  0  0
 31  1  1  0  0  0  0
 31 33  1  0  0  0  0
 33 36  1  0  0  0  0
 33 34  1  0  0  0  0
 35 33  1  0  0  0  0
 37 38  1  0  0  0  0
 37 31  1  0  0  0  0
 39 37  1  0  0  0  0
 40 37  1  0  0  0  0
 41 40  2  0  0  0  0
 42 41  1  0  0  0  0
 43 42  2  0  0  0  0
 43 44  1  0  0  0  0
 44 46  1  0  0  0  0
 44 40  1  0  0  0  0
 45 43  1  0  0  0  0
 46 49  1  0  0  0  0
 47 46  1  0  0  0  0
 48 46  1  0  0  0  0
M  END
>  <MODEL>
16

>  <REMARK>
 VINA RESULT:    -8.194      5.089      9.168
 INTER + INTRA:         -11.791
 INTER:                 -10.897
 INTRA:                  -0.894
 UNBOUND:                -0.243
  Name = 
  8 active torsions:
  status: ('A' for Active; 'I' for Inactive)
    1  A    between atoms: C_1  and  C_2
    2  A    between atoms: C_2  and  C_3
    3  A    between atoms: C_2  and  C_10
    4  A    between atoms: C_3  and  C_4
    5  A    between atoms: N_8  and  C_9
    6  A    between atoms: C_14  and  N_15
    7  A    between atoms: C_16  and  C_18
    8  A    between atoms: C_23  and  C_24
                            x       y       z     vdW  Elec       q    Type
                         _______ _______ _______ _____ _____    ______ ____

>  <TORSDO>
F 8

$$$$
=
 OpenBabel07192307433D

 49 52  0  0  1  0  0  0  0  0999 V2000
    0.1240   10.6820   20.3150 C   0  0  0  0  0  0  0  0  0  0  0  0
    0.0290   10.6780   21.7120 C   0  0  0  0  0  0  0  0  0  0  0  0
    0.5800    9.6340   22.4520 C   0  0  0  0  0  0  0  0  0  0  0  0
    1.2290    8.5760   21.8110 C   0  0  0  0  0  0  0  0  0  0  0  0
    1.3290    8.5490   20.4200 C   0  0  0  0  0  0  0  0  0  0  0  0
    0.7740    9.6060   19.6830 C   0  0  0  0  0  0  0  0  0  0  0  0
   -0.4730   11.4840   22.2410 H   0  0  0  0  0  0  0  0  0  0  0  0
    0.5080    9.6390   23.5370 H   0  0  0  0  0  0  0  0  0  0  0  0
    1.6460    7.7880   22.4300 H   0  0  0  0  0  0  0  0  0  0  0  0
    0.8400    9.6000   18.5960 H   0  0  0  0  0  0  0  0  0  0  0  0
    1.9630    7.5210   19.6910 N   0  0  0  0  0  0  0  0  0  0  0  0
    2.0140    6.1780   20.0060 C   0  0  0  0  0  0  0  0  0  0  0  0
    1.4730    5.6260   20.9580 O   0  0  0  0  0  0  0  0  0  0  0  0
    2.3890    7.8100   18.8210 H   0  0  0  0  0  0  0  0  0  0  0  0
    2.7940    5.3680   19.0370 C   0  0  0  0  0  0  0  0  0  0  0  0
    2.8450    4.0270   18.8570 C   0  0  0  0  0  0  0  0  0  0  0  0
    3.7330    3.7010   17.7350 C   0  0  0  0  0  0  0  0  0  0  0  0
    4.0440    2.1190   17.2260 Cl  0  0  0  0  0  0  0  0  0  0  0  0
    4.2110    4.8370   17.2230 C   0  0  0  0  0  0  0  0  0  0  0  0
    5.0560    5.3850   16.2050 C   0  0  0  0  0  0  0  0  0  0  0  0
    4.9870    6.7260   16.3830 C   0  0  0  0  0  0  0  0  0  0  0  0
    4.1040    7.0540   17.5080 C   0  0  0  0  0  0  0  0  0  0  0  0
    3.6410    5.9060   18.0110 C   0  0  0  0  0  0  0  0  0  0  0  0
    2.3060    3.2710   19.4060 H   0  0  0  0  0  0  0  0  0  0  0  0
    5.4980    7.4740   15.7930 H   0  0  0  0  0  0  0  0  0  0  0  0
    3.8770    8.0520   17.8530 H   0  0  0  0  0  0  0  0  0  0  0  0
    5.8090    4.5920   15.2080 C   0  0  0  0  0  0  0  0  0  0  0  0
    5.0040    4.0970   14.2340 F   0  0  0  0  0  0  0  0  0  0  0  0
    6.4480    3.5350   15.7730 F   0  0  0  0  0  0  0  0  0  0  0  0
    6.7630    5.3320   14.5840 F   0  0  0  0  0  0  0  0  0  0  0  0
   -0.4800   11.7940   19.4670 C   0  0  2  0  0  0  0  0  0  0  0  0
   -1.1400   11.3300   18.7220 H   0  0  0  0  0  0  0  0  0  0  0  0
    0.6000   12.5470   18.6760 C   0  0  0  0  0  0  0  0  0  0  0  0
    1.1930   13.1900   19.3340 H   0  0  0  0  0  0  0  0  0  0  0  0
    1.2910   11.8630   18.1720 H   0  0  0  0  0  0  0  0  0  0  0  0
    0.1480   13.1890   17.9110 H   0  0  0  0  0  0  0  0  0  0  0  0
   -1.3190   12.7390   20.3510 C   0  0  0  0  0  0  0  0  0  0  0  0
   -1.0370   13.7820   20.1700 H   0  0  0  0  0  0  0  0  0  0  0  0
   -1.0990   12.5450   21.4100 H   0  0  0  0  0  0  0  0  0  0  0  0
   -2.7840   12.5350   20.1560 C   0  0  0  0  0  0  0  0  0  0  0  0
   -3.3680   12.1300   19.0460 N   0  0  0  0  0  0  0  0  0  0  0  0
   -4.7220   12.0750   19.2680 N   0  0  0  0  0  0  0  0  0  0  0  0
   -4.9370   12.4400   20.5090 C   0  0  0  0  0  0  0  0  0  0  0  0
   -3.7510   12.7360   21.1060 N   0  0  0  0  0  0  0  0  0  0  0  0
   -5.8990   12.5010   20.9970 H   0  0  0  0  0  0  0  0  0  0  0  0
   -3.5730   13.1750   22.4630 C   0  0  0  0  0  0  0  0  0  0  0  0
   -2.5500   13.5390   22.5800 H   0  0  0  0  0  0  0  0  0  0  0  0
   -3.7460   12.3380   23.1460 H   0  0  0  0  0  0  0  0  0  0  0  0
   -4.2930   13.9720   22.6710 H   0  0  0  0  0  0  0  0  0  0  0  0
  1  2  1  0  0  0  0
  2  7  1  0  0  0  0
  2  3  2  0  0  0  0
  3  8  1  0  0  0  0
  4  9  1  0  0  0  0
  4  3  1  0  0  0  0
  5  4  2  0  0  0  0
  6  1  2  0  0  0  0
  6  5  1  0  0  0  0
 10  6  1  0  0  0  0
 11 12  1  0  0  0  0
 11  5  1  0  0  0  0
 12 13  2  0  0  0  0
 14 11  1  0  0  0  0
 15 12  1  0  0  0  0
 16 15  1  0  0  0  0
 16 24  1  0  0  0  0
 17 16  2  0  0  0  0
 18 17  1  0  0  0  0
 19 17  1  0  0  0  0
 19 23  1  0  0  0  0
 20 21  1  0  0  0  0
 20 19  2  0  0  0  0
 21 22  2  0  0  0  0
 22 26  1  0  0  0  0
 22 23  1  0  0  0  0
 23 15  2  0  0  0  0
 25 21  1  0  0  0  0
 27 29  1  0  0  0  0
 27 20  1  0  0  0  0
 28 27  1  0  0  0  0
 30 27  1  0  0  0  0
 31 32  1  6  0  0  0
 31  1  1  0  0  0  0
 31 37  1  0  0  0  0
 33 34  1  0  0  0  0
 33 31  1  0  0  0  0
 35 33  1  0  0  0  0
 36 33  1  0  0  0  0
 37 39  1  0  0  0  0
 38 37  1  0  0  0  0
 40 37  1  0  0  0  0
 40 44  1  0  0  0  0
 41 42  1  0  0  0  0
 41 40  2  0  0  0  0
 42 43  2  0  0  0  0
 43 45  1  0  0  0  0
 43 44  1  0  0  0  0
 44 46  1  0  0  0  0
 46 47  1  0  0  0  0
 46 49  1  0  0  0  0
 46 48  1  0  0  0  0
M  END
>  <MODEL>
17

>  <REMARK>
 VINA RESULT:    -8.132      1.805      2.272
 INTER + INTRA:         -11.703
 INTER:                 -11.063
 INTRA:                  -0.640
 UNBOUND:                -0.243
  Name = 
  8 active torsions:
  status: ('A' for Active; 'I' for Inactive)
    1  A    between atoms: C_1  and  C_2
    2  A    between atoms: C_2  and  C_3
    3  A    between atoms: C_2  and  C_10
    4  A    between atoms: C_3  and  C_4
    5  A    between atoms: N_8  and  C_9
    6  A    between atoms: C_14  and  N_15
    7  A    between atoms: C_16  and  C_18
    8  A    between atoms: C_23  and  C_24
                            x       y       z     vdW  Elec       q    Type
                         _______ _______ _______ _____ _____    ______ ____

>  <TORSDO>
F 8

$$$$
=
 OpenBabel07192307433D

 49 52  0  0  1  0  0  0  0  0999 V2000
   -1.0390   12.1540   20.2290 C   0  0  0  0  0  0  0  0  0  0  0  0
   -2.1310   12.3390   19.3720 C   0  0  0  0  0  0  0  0  0  0  0  0
   -2.3470   11.4650   18.3080 C   0  0  0  0  0  0  0  0  0  0  0  0
   -1.4740   10.3980   18.0790 C   0  0  0  0  0  0  0  0  0  0  0  0
   -0.3730   10.1970   18.9110 C   0  0  0  0  0  0  0  0  0  0  0  0
   -0.1650   11.0800   19.9810 C   0  0  0  0  0  0  0  0  0  0  0  0
   -2.8250   13.1620   19.5200 H   0  0  0  0  0  0  0  0  0  0  0  0
   -3.2000   11.6100   17.6490 H   0  0  0  0  0  0  0  0  0  0  0  0
   -1.6870    9.7420   17.2420 H   0  0  0  0  0  0  0  0  0  0  0  0
    0.6910   10.9400   20.6380 H   0  0  0  0  0  0  0  0  0  0  0  0
    0.5580    9.1490   18.7520 N   0  0  0  0  0  0  0  0  0  0  0  0
    1.8250    9.2280   18.2100 C   0  0  0  0  0  0  0  0  0  0  0  0
    2.3900   10.2390   17.8090 O   0  0  0  0  0  0  0  0  0  0  0  0
    0.2650    8.2540   19.1190 H   0  0  0  0  0  0  0  0  0  0  0  0
    2.5350    7.9250   18.1630 C   0  0  0  0  0  0  0  0  0  0  0  0
    3.4850    7.4750   17.3100 C   0  0  0  0  0  0  0  0  0  0  0  0
    3.9170    6.1280   17.6980 C   0  0  0  0  0  0  0  0  0  0  0  0
    5.0880    5.2490   16.8540 Cl  0  0  0  0  0  0  0  0  0  0  0  0
    3.2460    5.7620   18.7920 C   0  0  0  0  0  0  0  0  0  0  0  0
    3.0720    4.7100   19.7480 C   0  0  0  0  0  0  0  0  0  0  0  0
    2.1320    5.1750   20.6060 C   0  0  0  0  0  0  0  0  0  0  0  0
    1.6940    6.5190   20.2150 C   0  0  0  0  0  0  0  0  0  0  0  0
    2.3710    6.8650   19.1170 C   0  0  0  0  0  0  0  0  0  0  0  0
    3.9180    8.0030   16.4740 H   0  0  0  0  0  0  0  0  0  0  0  0
    1.7410    4.6510   21.4680 H   0  0  0  0  0  0  0  0  0  0  0  0
    0.9560    7.1110   20.7370 H   0  0  0  0  0  0  0  0  0  0  0  0
    3.8000    3.4220   19.7360 C   0  0  0  0  0  0  0  0  0  0  0  0
    3.5620    2.6900   20.8540 F   0  0  0  0  0  0  0  0  0  0  0  0
    5.1430    3.5950   19.6500 F   0  0  0  0  0  0  0  0  0  0  0  0
    3.4410    2.6440   18.6810 F   0  0  0  0  0  0  0  0  0  0  0  0
   -0.7560   13.0960   21.3920 C   0  0  2  0  0  0  0  0  0  0  0  0
   -1.4240   13.9630   21.2940 H   0  0  0  0  0  0  0  0  0  0  0  0
    0.6760   13.6470   21.3340 C   0  0  0  0  0  0  0  0  0  0  0  0
    1.2780   13.1000   20.6020 H   0  0  0  0  0  0  0  0  0  0  0  0
    0.6980   14.7060   21.0540 H   0  0  0  0  0  0  0  0  0  0  0  0
    1.1730   13.5470   22.3070 H   0  0  0  0  0  0  0  0  0  0  0  0
   -1.0560   12.3910   22.7310 C   0  0  0  0  0  0  0  0  0  0  0  0
   -0.2050   12.4930   23.4140 H   0  0  0  0  0  0  0  0  0  0  0  0
   -1.1800   11.3140   22.5600 H   0  0  0  0  0  0  0  0  0  0  0  0
   -2.3140   12.8910   23.3570 C   0  0  0  0  0  0  0  0  0  0  0  0
   -3.5000   12.3220   23.2720 N   0  0  0  0  0  0  0  0  0  0  0  0
   -4.3970   13.0880   23.9760 N   0  0  0  0  0  0  0  0  0  0  0  0
   -3.7400   14.1040   24.4830 C   0  0  0  0  0  0  0  0  0  0  0  0
   -2.4300   14.0220   24.1220 N   0  0  0  0  0  0  0  0  0  0  0  0
   -4.1570   14.8910   25.0930 H   0  0  0  0  0  0  0  0  0  0  0  0
   -1.3940   14.9500   24.4810 C   0  0  0  0  0  0  0  0  0  0  0  0
   -0.9790   15.3810   23.5680 H   0  0  0  0  0  0  0  0  0  0  0  0
   -0.6060   14.4280   25.0320 H   0  0  0  0  0  0  0  0  0  0  0  0
   -1.8260   15.7310   25.1140 H   0  0  0  0  0  0  0  0  0  0  0  0
  1 31  1  0  0  0  0
  2  7  1  0  0  0  0
  2  1  2  0  0  0  0
  3  2  1  0  0  0  0
  4  3  2  0  0  0  0
  4  5  1  0  0  0  0
  5  6  2  0  0  0  0
  6  1  1  0  0  0  0
  6 10  1  0  0  0  0
  8  3  1  0  0  0  0
  9  4  1  0  0  0  0
 11  5  1  0  0  0  0
 11 14  1  0  0  0  0
 12 11  1  0  0  0  0
 13 12  2  0  0  0  0
 15 12  1  0  0  0  0
 15 23  1  0  0  0  0
 16 17  1  0  0  0  0
 16 15  2  0  0  0  0
 17 19  2  0  0  0  0
 18 17  1  0  0  0  0
 19 23  1  0  0  0  0
 19 20  1  0  0  0  0
 20 21  2  0  0  0  0
 21 25  1  0  0  0  0
 22 21  1  0  0  0  0
 22 26  1  0  0  0  0
 23 22  2  0  0  0  0
 24 16  1  0  0  0  0
 27 20  1  0  0  0  0
 27 28  1  0  0  0  0
 29 27  1  0  0  0  0
 30 27  1  0  0  0  0
 31 32  1  6  0  0  0
 31 37  1  0  0  0  0
 33 31  1  0  0  0  0
 33 36  1  0  0  0  0
 34 33  1  0  0  0  0
 35 33  1  0  0  0  0
 37 40  1  0  0  0  0
 37 38  1  0  0  0  0
 39 37  1  0  0  0  0
 40 44  1  0  0  0  0
 41 40  2  0  0  0  0
 41 42  1  0  0  0  0
 42 43  2  0  0  0  0
 43 45  1  0  0  0  0
 44 46  1  0  0  0  0
 44 43  1  0  0  0  0
 46 48  1  0  0  0  0
 46 49  1  0  0  0  0
 47 46  1  0  0  0  0
M  END
>  <MODEL>
18

>  <REMARK>
 VINA RESULT:    -8.055      3.579      5.021
 INTER + INTRA:         -11.594
 INTER:                 -10.550
 INTRA:                  -1.044
 UNBOUND:                -0.243
  Name = 
  8 active torsions:
  status: ('A' for Active; 'I' for Inactive)
    1  A    between atoms: C_1  and  C_2
    2  A    between atoms: C_2  and  C_3
    3  A    between atoms: C_2  and  C_10
    4  A    between atoms: C_3  and  C_4
    5  A    between atoms: N_8  and  C_9
    6  A    between atoms: C_14  and  N_15
    7  A    between atoms: C_16  and  C_18
    8  A    between atoms: C_23  and  C_24
                            x       y       z     vdW  Elec       q    Type
                         _______ _______ _______ _____ _____    ______ ____

>  <TORSDO>
F 8

$$$$
=
 OpenBabel07192307433D

 49 52  0  0  1  0  0  0  0  0999 V2000
   -0.5930   11.0400   20.8350 C   0  0  0  0  0  0  0  0  0  0  0  0
   -0.9450   11.0130   22.1900 C   0  0  0  0  0  0  0  0  0  0  0  0
   -0.4430   10.0180   23.0280 C   0  0  0  0  0  0  0  0  0  0  0  0
    0.4120    9.0340   22.5260 C   0  0  0  0  0  0  0  0  0  0  0  0
    0.7700    9.0320   21.1780 C   0  0  0  0  0  0  0  0  0  0  0  0
    0.2640   10.0380   20.3430 C   0  0  0  0  0  0  0  0  0  0  0  0
   -1.6120   11.7610   22.6100 H   0  0  0  0  0  0  0  0  0  0  0  0
   -0.7160   10.0050   24.0800 H   0  0  0  0  0  0  0  0  0  0  0  0
    0.7810    8.2840   23.2170 H   0  0  0  0  0  0  0  0  0  0  0  0
    0.5300   10.0510   19.2880 H   0  0  0  0  0  0  0  0  0  0  0  0
    1.6250    8.0770   20.5880 N   0  0  0  0  0  0  0  0  0  0  0  0
    1.9780    7.9770   19.2570 C   0  0  0  0  0  0  0  0  0  0  0  0
    1.6470    8.7330   18.3510 O   0  0  0  0  0  0  0  0  0  0  0  0
    2.0520    7.4250   21.2320 H   0  0  0  0  0  0  0  0  0  0  0  0
    2.8760    6.8320   18.9640 C   0  0  0  0  0  0  0  0  0  0  0  0
    3.0290    5.6510   19.6090 C   0  0  0  0  0  0  0  0  0  0  0  0
    4.0130    4.8170   18.9100 C   0  0  0  0  0  0  0  0  0  0  0  0
    4.4620    3.2740   19.4350 Cl  0  0  0  0  0  0  0  0  0  0  0  0
    4.4490    5.4780   17.8360 C   0  0  0  0  0  0  0  0  0  0  0  0
    5.3250    5.4040   16.7060 C   0  0  0  0  0  0  0  0  0  0  0  0
    5.1550    6.5820   16.0600 C   0  0  0  0  0  0  0  0  0  0  0  0
    4.1760    7.4200   16.7600 C   0  0  0  0  0  0  0  0  0  0  0  0
    3.7560    6.7460   17.8330 C   0  0  0  0  0  0  0  0  0  0  0  0
    2.5030    5.3120   20.4880 H   0  0  0  0  0  0  0  0  0  0  0  0
    5.6560    6.8880   15.1510 H   0  0  0  0  0  0  0  0  0  0  0  0
    3.8600    8.4050   16.4470 H   0  0  0  0  0  0  0  0  0  0  0  0
    6.1980    4.2540   16.3800 C   0  0  0  0  0  0  0  0  0  0  0  0
    6.8610    4.4300   15.2090 F   0  0  0  0  0  0  0  0  0  0  0  0
    5.4970    3.0960   16.2720 F   0  0  0  0  0  0  0  0  0  0  0  0
    7.1430    4.0460   17.3340 F   0  0  0  0  0  0  0  0  0  0  0  0
   -1.1330   12.0980   19.8820 C   0  0  2  0  0  0  0  0  0  0  0  0
   -1.0630   13.0730   20.3840 H   0  0  0  0  0  0  0  0  0  0  0  0
   -2.6220   11.8750   19.5790 C   0  0  0  0  0  0  0  0  0  0  0  0
   -3.1980   12.7910   19.7480 H   0  0  0  0  0  0  0  0  0  0  0  0
   -2.7880   11.5680   18.5410 H   0  0  0  0  0  0  0  0  0  0  0  0
   -3.0410   11.0990   20.2300 H   0  0  0  0  0  0  0  0  0  0  0  0
   -0.2780   12.1430   18.5990 C   0  0  0  0  0  0  0  0  0  0  0  0
   -0.9220   12.1820   17.7130 H   0  0  0  0  0  0  0  0  0  0  0  0
    0.3030   11.2150   18.5100 H   0  0  0  0  0  0  0  0  0  0  0  0
    0.6920   13.2760   18.6110 C   0  0  0  0  0  0  0  0  0  0  0  0
    0.4280   14.5180   18.9650 N   0  0  0  0  0  0  0  0  0  0  0  0
    1.5780   15.2570   18.8320 N   0  0  0  0  0  0  0  0  0  0  0  0
    2.5220   14.4510   18.4070 C   0  0  0  0  0  0  0  0  0  0  0  0
    2.0140   13.1980   18.2550 N   0  0  0  0  0  0  0  0  0  0  0  0
    3.5470   14.7230   18.2040 H   0  0  0  0  0  0  0  0  0  0  0  0
    2.7370   12.0410   17.8050 C   0  0  0  0  0  0  0  0  0  0  0  0
    3.1760   12.2610   16.8300 H   0  0  0  0  0  0  0  0  0  0  0  0
    2.0530   11.1910   17.7180 H   0  0  0  0  0  0  0  0  0  0  0  0
    3.5160   11.8090   18.5370 H   0  0  0  0  0  0  0  0  0  0  0  0
  1  2  1  0  0  0  0
  2  7  1  0  0  0  0
  2  3  2  0  0  0  0
  3  8  1  0  0  0  0
  4  3  1  0  0  0  0
  4  9  1  0  0  0  0
  5  4  2  0  0  0  0
  6  1  2  0  0  0  0
  6  5  1  0  0  0  0
 10  6  1  0  0  0  0
 11  5  1  0  0  0  0
 11 14  1  0  0  0  0
 12 11  1  0  0  0  0
 13 12  2  0  0  0  0
 15 12  1  0  0  0  0
 15 16  1  0  0  0  0
 16 24  1  0  0  0  0
 17 18  1  0  0  0  0
 17 16  2  0  0  0  0
 19 17  1  0  0  0  0
 20 19  2  0  0  0  0
 21 20  1  0  0  0  0
 21 22  2  0  0  0  0
 22 23  1  0  0  0  0
 23 19  1  0  0  0  0
 23 15  2  0  0  0  0
 25 21  1  0  0  0  0
 26 22  1  0  0  0  0
 27 20  1  0  0  0  0
 27 30  1  0  0  0  0
 28 27  1  0  0  0  0
 29 27  1  0  0  0  0
 31 32  1  1  0  0  0
 31  1  1  0  0  0  0
 33 34  1  0  0  0  0
 33 31  1  0  0  0  0
 33 36  1  0  0  0  0
 35 33  1  0  0  0  0
 37 40  1  0  0  0  0
 37 31  1  0  0  0  0
 38 37  1  0  0  0  0
 39 37  1  0  0  0  0
 40 41  2  0  0  0  0
 42 41  1  0  0  0  0
 43 42  2  0  0  0  0
 44 43  1  0  0  0  0
 44 40  1  0  0  0  0
 45 43  1  0  0  0  0
 46 44  1  0  0  0  0
 46 49  1  0  0  0  0
 47 46  1  0  0  0  0
 48 46  1  0  0  0  0
M  END
>  <MODEL>
19

>  <REMARK>
 VINA RESULT:    -8.048      2.522      3.452
 INTER + INTRA:         -11.585
 INTER:                 -10.902
 INTRA:                  -0.683
 UNBOUND:                -0.243
  Name = 
  8 active torsions:
  status: ('A' for Active; 'I' for Inactive)
    1  A    between atoms: C_1  and  C_2
    2  A    between atoms: C_2  and  C_3
    3  A    between atoms: C_2  and  C_10
    4  A    between atoms: C_3  and  C_4
    5  A    between atoms: N_8  and  C_9
    6  A    between atoms: C_14  and  N_15
    7  A    between atoms: C_16  and  C_18
    8  A    between atoms: C_23  and  C_24
                            x       y       z     vdW  Elec       q    Type
                         _______ _______ _______ _____ _____    ______ ____

>  <TORSDO>
F 8

$$$$
=
 OpenBabel07192307433D

 49 52  0  0  1  0  0  0  0  0999 V2000
   -0.5270   10.7190   19.7960 C   0  0  0  0  0  0  0  0  0  0  0  0
   -0.3720   11.0180   21.1550 C   0  0  0  0  0  0  0  0  0  0  0  0
    0.4900   10.2630   21.9490 C   0  0  0  0  0  0  0  0  0  0  0  0
    1.2050    9.1950   21.4000 C   0  0  0  0  0  0  0  0  0  0  0  0
    1.0620    8.8700   20.0520 C   0  0  0  0  0  0  0  0  0  0  0  0
    0.1950    9.6370   19.2600 C   0  0  0  0  0  0  0  0  0  0  0  0
   -0.9180   11.8390   21.6140 H   0  0  0  0  0  0  0  0  0  0  0  0
    0.6110   10.5030   23.0020 H   0  0  0  0  0  0  0  0  0  0  0  0
    1.8680    8.6400   22.0560 H   0  0  0  0  0  0  0  0  0  0  0  0
    0.0680    9.3950   18.2060 H   0  0  0  0  0  0  0  0  0  0  0  0
    1.7430    7.8090   19.4170 N   0  0  0  0  0  0  0  0  0  0  0  0
    1.9470    6.5340   19.9030 C   0  0  0  0  0  0  0  0  0  0  0  0
    1.5320    6.0760   20.9610 O   0  0  0  0  0  0  0  0  0  0  0  0
    2.0770    8.0100   18.4840 H   0  0  0  0  0  0  0  0  0  0  0  0
    2.7350    5.6680   18.9890 C   0  0  0  0  0  0  0  0  0  0  0  0
    2.7720    4.3190   18.8760 C   0  0  0  0  0  0  0  0  0  0  0  0
    3.6750    3.9270   17.7880 C   0  0  0  0  0  0  0  0  0  0  0  0
    3.9740    2.3180   17.3630 Cl  0  0  0  0  0  0  0  0  0  0  0  0
    4.1760    5.0310   17.2300 C   0  0  0  0  0  0  0  0  0  0  0  0
    5.0470    5.5170   16.2020 C   0  0  0  0  0  0  0  0  0  0  0  0
    4.9920    6.8660   16.3130 C   0  0  0  0  0  0  0  0  0  0  0  0
    4.0930    7.2600   17.4040 C   0  0  0  0  0  0  0  0  0  0  0  0
    3.6070    6.1440   17.9540 C   0  0  0  0  0  0  0  0  0  0  0  0
    2.2120    3.5970   19.4520 H   0  0  0  0  0  0  0  0  0  0  0  0
    5.5230    7.5780   15.6960 H   0  0  0  0  0  0  0  0  0  0  0  0
    3.8730    8.2770   17.6950 H   0  0  0  0  0  0  0  0  0  0  0  0
    5.8080    4.6670   15.2600 C   0  0  0  0  0  0  0  0  0  0  0  0
    6.7140    5.3810   14.5450 F   0  0  0  0  0  0  0  0  0  0  0  0
    4.9980    4.0440   14.3660 F   0  0  0  0  0  0  0  0  0  0  0  0
    6.5020    3.6910   15.9010 F   0  0  0  0  0  0  0  0  0  0  0  0
   -1.4720   11.5070   18.8990 C   0  0  2  0  0  0  0  0  0  0  0  0
   -2.0990   12.1400   19.5420 H   0  0  0  0  0  0  0  0  0  0  0  0
   -2.4310   10.5790   18.1390 C   0  0  0  0  0  0  0  0  0  0  0  0
   -3.3000   11.1330   17.7670 H   0  0  0  0  0  0  0  0  0  0  0  0
   -1.9480   10.1060   17.2780 H   0  0  0  0  0  0  0  0  0  0  0  0
   -2.8050    9.7840   18.7940 H   0  0  0  0  0  0  0  0  0  0  0  0
   -0.6660   12.4160   17.9480 C   0  0  0  0  0  0  0  0  0  0  0  0
   -1.3290   12.8720   17.2030 H   0  0  0  0  0  0  0  0  0  0  0  0
    0.0540   11.8110   17.3820 H   0  0  0  0  0  0  0  0  0  0  0  0
    0.1090   13.4540   18.6870 C   0  0  0  0  0  0  0  0  0  0  0  0
   -0.3980   14.4850   19.3340 N   0  0  0  0  0  0  0  0  0  0  0  0
    0.6390   15.2070   19.8730 N   0  0  0  0  0  0  0  0  0  0  0  0
    1.7560   14.5990   19.5520 C   0  0  0  0  0  0  0  0  0  0  0  0
    1.4740   13.4940   18.8100 N   0  0  0  0  0  0  0  0  0  0  0  0
    2.7520   14.9130   19.8260 H   0  0  0  0  0  0  0  0  0  0  0  0
    2.4320   12.5710   18.2690 C   0  0  0  0  0  0  0  0  0  0  0  0
    3.1920   12.3720   19.0280 H   0  0  0  0  0  0  0  0  0  0  0  0
    2.9030   13.0060   17.3830 H   0  0  0  0  0  0  0  0  0  0  0  0
    1.9130   11.6490   17.9920 H   0  0  0  0  0  0  0  0  0  0  0  0
  1  2  1  0  0  0  0
  2  7  1  0  0  0  0
  2  3  2  0  0  0  0
  3  8  1  0  0  0  0
  4  3  1  0  0  0  0
  4  9  1  0  0  0  0
  5  4  2  0  0  0  0
  6  1  2  0  0  0  0
  6  5  1  0  0  0  0
 10  6  1  0  0  0  0
 11 12  1  0  0  0  0
 11  5  1  0  0  0  0
 12 13  2  0  0  0  0
 14 11  1  0  0  0  0
 15 12  1  0  0  0  0
 16 15  1  0  0  0  0
 16 24  1  0  0  0  0
 17 16  2  0  0  0  0
 18 17  1  0  0  0  0
 19 17  1  0  0  0  0
 19 23  1  0  0  0  0
 20 21  1  0  0  0  0
 20 19  2  0  0  0  0
 21 22  2  0  0  0  0
 22 26  1  0  0  0  0
 22 23  1  0  0  0  0
 23 15  2  0  0  0  0
 25 21  1  0  0  0  0
 27 30  1  0  0  0  0
 27 20  1  0  0  0  0
 28 27  1  0  0  0  0
 29 27  1  0  0  0  0
 31 32  1  1  0  0  0
 31  1  1  0  0  0  0
 33 36  1  0  0  0  0
 33 31  1  0  0  0  0
 34 33  1  0  0  0  0
 35 33  1  0  0  0  0
 37 40  1  0  0  0  0
 37 31  1  0  0  0  0
 38 37  1  0  0  0  0
 39 37  1  0  0  0  0
 40 44  1  0  0  0  0
 40 41  2  0  0  0  0
 41 42  1  0  0  0  0
 43 45  1  0  0  0  0
 43 42  2  0  0  0  0
 44 43  1  0  0  0  0
 46 44  1  0  0  0  0
 46 47  1  0  0  0  0
 48 46  1  0  0  0  0
 49 46  1  0  0  0  0
M  END
>  <MODEL>
20

>  <REMARK>
 VINA RESULT:    -8.030      2.029      3.147
 INTER + INTRA:         -11.560
 INTER:                 -10.594
 INTRA:                  -0.966
 UNBOUND:                -0.243
  Name = 
  8 active torsions:
  status: ('A' for Active; 'I' for Inactive)
    1  A    between atoms: C_1  and  C_2
    2  A    between atoms: C_2  and  C_3
    3  A    between atoms: C_2  and  C_10
    4  A    between atoms: C_3  and  C_4
    5  A    between atoms: N_8  and  C_9
    6  A    between atoms: C_14  and  N_15
    7  A    between atoms: C_16  and  C_18
    8  A    between atoms: C_23  and  C_24
                            x       y       z     vdW  Elec       q    Type
                         _______ _______ _______ _____ _____    ______ ____

>  <TORSDO>
F 8

$$$$
=
 OpenBabel07192307433D

 49 52  0  0  1  0  0  0  0  0999 V2000
    0.4240   11.9650   18.9670 C   0  0  0  0  0  0  0  0  0  0  0  0
   -0.8740   11.9140   18.4440 C   0  0  0  0  0  0  0  0  0  0  0  0
   -1.3610   10.7330   17.8850 C   0  0  0  0  0  0  0  0  0  0  0  0
   -0.5600    9.5900   17.8340 C   0  0  0  0  0  0  0  0  0  0  0  0
    0.7400    9.6170   18.3380 C   0  0  0  0  0  0  0  0  0  0  0  0
    1.2210   10.8080   18.9020 C   0  0  0  0  0  0  0  0  0  0  0  0
   -1.5200   12.7870   18.4640 H   0  0  0  0  0  0  0  0  0  0  0  0
   -2.3720   10.6970   17.4850 H   0  0  0  0  0  0  0  0  0  0  0  0
   -0.9850    8.6940   17.3940 H   0  0  0  0  0  0  0  0  0  0  0  0
    2.2340   10.8480   19.2970 H   0  0  0  0  0  0  0  0  0  0  0  0
    1.6170    8.5110   18.3260 N   0  0  0  0  0  0  0  0  0  0  0  0
    2.0340    7.7600   19.4060 C   0  0  0  0  0  0  0  0  0  0  0  0
    1.6780    7.8900   20.5710 O   0  0  0  0  0  0  0  0  0  0  0  0
    1.9350    8.2240   17.4100 H   0  0  0  0  0  0  0  0  0  0  0  0
    2.9880    6.6810   19.0470 C   0  0  0  0  0  0  0  0  0  0  0  0
    3.2310    5.4910   19.6460 C   0  0  0  0  0  0  0  0  0  0  0  0
    4.2390    4.7400   18.8900 C   0  0  0  0  0  0  0  0  0  0  0  0
    4.7960    3.2110   19.3490 Cl  0  0  0  0  0  0  0  0  0  0  0  0
    4.6010    5.4600   17.8260 C   0  0  0  0  0  0  0  0  0  0  0  0
    5.4420    5.4750   16.6680 C   0  0  0  0  0  0  0  0  0  0  0  0
    5.1820    6.6610   16.0670 C   0  0  0  0  0  0  0  0  0  0  0  0
    4.1780    7.4160   16.8250 C   0  0  0  0  0  0  0  0  0  0  0  0
    3.8340    6.6840   17.8880 C   0  0  0  0  0  0  0  0  0  0  0  0
    2.7550    5.0930   20.5300 H   0  0  0  0  0  0  0  0  0  0  0  0
    5.6340    7.0260   15.1550 H   0  0  0  0  0  0  0  0  0  0  0  0
    3.7950    8.3890   16.5550 H   0  0  0  0  0  0  0  0  0  0  0  0
    6.3700    4.3910   16.2770 C   0  0  0  0  0  0  0  0  0  0  0  0
    7.1010    4.7140   15.1800 F   0  0  0  0  0  0  0  0  0  0  0  0
    5.7150    3.2360   15.9940 F   0  0  0  0  0  0  0  0  0  0  0  0
    7.2590    4.1010   17.2640 F   0  0  0  0  0  0  0  0  0  0  0  0
    1.0020   13.2390   19.5700 C   0  0  2  0  0  0  0  0  0  0  0  0
    0.2790   14.0490   19.4030 H   0  0  0  0  0  0  0  0  0  0  0  0
    2.2950   13.6620   18.8580 C   0  0  0  0  0  0  0  0  0  0  0  0
    3.1480   13.6340   19.5450 H   0  0  0  0  0  0  0  0  0  0  0  0
    2.5310   13.0070   18.0130 H   0  0  0  0  0  0  0  0  0  0  0  0
    2.2150   14.6860   18.4770 H   0  0  0  0  0  0  0  0  0  0  0  0
    1.2030   13.0630   21.0890 C   0  0  0  0  0  0  0  0  0  0  0  0
    1.8610   13.8480   21.4790 H   0  0  0  0  0  0  0  0  0  0  0  0
    1.7160   12.1120   21.2850 H   0  0  0  0  0  0  0  0  0  0  0  0
   -0.0930   13.0310   21.8260 C   0  0  0  0  0  0  0  0  0  0  0  0
   -0.8630   14.0690   22.0860 N   0  0  0  0  0  0  0  0  0  0  0  0
   -1.9580   13.6280   22.7870 N   0  0  0  0  0  0  0  0  0  0  0  0
   -1.8400   12.3300   22.9350 C   0  0  0  0  0  0  0  0  0  0  0  0
   -0.6870   11.9110   22.3480 N   0  0  0  0  0  0  0  0  0  0  0  0
   -2.5390   11.6810   23.4410 H   0  0  0  0  0  0  0  0  0  0  0  0
   -0.2050   10.5580   22.3000 C   0  0  0  0  0  0  0  0  0  0  0  0
   -0.1470   10.2440   21.2560 H   0  0  0  0  0  0  0  0  0  0  0  0
   -0.8920    9.9030   22.8440 H   0  0  0  0  0  0  0  0  0  0  0  0
    0.7830   10.5200   22.7690 H   0  0  0  0  0  0  0  0  0  0  0  0
  1 31  1  0  0  0  0
  2  7  1  0  0  0  0
  2  1  2  0  0  0  0
  3  2  1  0  0  0  0
  4  3  2  0  0  0  0
  4  5  1  0  0  0  0
  5  6  2  0  0  0  0
  6  1  1  0  0  0  0
  6 10  1  0  0  0  0
  8  3  1  0  0  0  0
  9  4  1  0  0  0  0
 11  5  1  0  0  0  0
 11 12  1  0  0  0  0
 12 13  2  0  0  0  0
 14 11  1  0  0  0  0
 15 12  1  0  0  0  0
 15 16  1  0  0  0  0
 16 24  1  0  0  0  0
 17 18  1  0  0  0  0
 17 16  2  0  0  0  0
 19 23  1  0  0  0  0
 19 17  1  0  0  0  0
 20 19  2  0  0  0  0
 21 20  1  0  0  0  0
 21 22  2  0  0  0  0
 22 23  1  0  0  0  0
 23 15  2  0  0  0  0
 25 21  1  0  0  0  0
 26 22  1  0  0  0  0
 27 20  1  0  0  0  0
 27 30  1  0  0  0  0
 28 27  1  0  0  0  0
 29 27  1  0  0  0  0
 31 32  1  6  0  0  0
 31 37  1  0  0  0  0
 33 34  1  0  0  0  0
 33 31  1  0  0  0  0
 35 33  1  0  0  0  0
 36 33  1  0  0  0  0
 37 39  1  0  0  0  0
 37 38  1  0  0  0  0
 37 40  1  0  0  0  0
 40 41  2  0  0  0  0
 40 44  1  0  0  0  0
 41 42  1  0  0  0  0
 42 43  2  0  0  0  0
 43 45  1  0  0  0  0
 44 43  1  0  0  0  0
 46 44  1  0  0  0  0
 46 49  1  0  0  0  0
 46 48  1  0  0  0  0
 47 46  1  0  0  0  0
M  END
>  <MODEL>
21

>  <REMARK>
 VINA RESULT:    -8.024      2.508      3.789
 INTER + INTRA:         -11.551
 INTER:                 -10.348
 INTRA:                  -1.203
 UNBOUND:                -0.243
  Name = 
  8 active torsions:
  status: ('A' for Active; 'I' for Inactive)
    1  A    between atoms: C_1  and  C_2
    2  A    between atoms: C_2  and  C_3
    3  A    between atoms: C_2  and  C_10
    4  A    between atoms: C_3  and  C_4
    5  A    between atoms: N_8  and  C_9
    6  A    between atoms: C_14  and  N_15
    7  A    between atoms: C_16  and  C_18
    8  A    between atoms: C_23  and  C_24
                            x       y       z     vdW  Elec       q    Type
                         _______ _______ _______ _____ _____    ______ ____

>  <TORSDO>
F 8

$$$$
=
 OpenBabel07192307433D

 49 52  0  0  1  0  0  0  0  0999 V2000
    0.3620   12.7390   19.0470 C   0  0  0  0  0  0  0  0  0  0  0  0
   -1.0320   12.7810   18.9150 C   0  0  0  0  0  0  0  0  0  0  0  0
   -1.7480   11.6180   18.6350 C   0  0  0  0  0  0  0  0  0  0  0  0
   -1.0840   10.3990   18.4770 C   0  0  0  0  0  0  0  0  0  0  0  0
    0.3040   10.3310   18.5930 C   0  0  0  0  0  0  0  0  0  0  0  0
    1.0160   11.5050   18.8780 C   0  0  0  0  0  0  0  0  0  0  0  0
   -1.5770   13.7150   19.0270 H   0  0  0  0  0  0  0  0  0  0  0  0
   -2.8300   11.6550   18.5390 H   0  0  0  0  0  0  0  0  0  0  0  0
   -1.6840    9.5200   18.2650 H   0  0  0  0  0  0  0  0  0  0  0  0
    2.1000   11.4720   18.9690 H   0  0  0  0  0  0  0  0  0  0  0  0
    1.0540    9.1440   18.4470 N   0  0  0  0  0  0  0  0  0  0  0  0
    1.6050    8.3720   19.4500 C   0  0  0  0  0  0  0  0  0  0  0  0
    1.5020    8.5550   20.6580 O   0  0  0  0  0  0  0  0  0  0  0  0
    1.1550    8.8130   17.4980 H   0  0  0  0  0  0  0  0  0  0  0  0
    2.3640    7.1990   18.9490 C   0  0  0  0  0  0  0  0  0  0  0  0
    3.3240    7.1180   17.9980 C   0  0  0  0  0  0  0  0  0  0  0  0
    3.8110    5.7390   17.8860 C   0  0  0  0  0  0  0  0  0  0  0  0
    5.0090    5.2620   16.7930 Cl  0  0  0  0  0  0  0  0  0  0  0  0
    3.1610    4.9830   18.7740 C   0  0  0  0  0  0  0  0  0  0  0  0
    3.0350    3.6540   19.2920 C   0  0  0  0  0  0  0  0  0  0  0  0
    2.0830    3.7480   20.2520 C   0  0  0  0  0  0  0  0  0  0  0  0
    1.5910    5.1250   20.3610 C   0  0  0  0  0  0  0  0  0  0  0  0
    2.2470    5.8640   19.4630 C   0  0  0  0  0  0  0  0  0  0  0  0
    3.7310    7.9250   17.4070 H   0  0  0  0  0  0  0  0  0  0  0  0
    1.7190    2.9370   20.8690 H   0  0  0  0  0  0  0  0  0  0  0  0
    0.8350    5.4640   21.0540 H   0  0  0  0  0  0  0  0  0  0  0  0
    3.8110    2.4830   18.8290 C   0  0  0  0  0  0  0  0  0  0  0  0
    4.9630    2.3240   19.5290 F   0  0  0  0  0  0  0  0  0  0  0  0
    4.1510    2.5820   17.5180 F   0  0  0  0  0  0  0  0  0  0  0  0
    3.1140    1.3240   18.9620 F   0  0  0  0  0  0  0  0  0  0  0  0
    1.1830   13.9890   19.3340 C   0  0  2  0  0  0  0  0  0  0  0  0
    1.3260   14.0570   20.4210 H   0  0  0  0  0  0  0  0  0  0  0  0
    0.4320   15.2630   18.9190 C   0  0  0  0  0  0  0  0  0  0  0  0
    1.0350   16.1560   19.1150 H   0  0  0  0  0  0  0  0  0  0  0  0
    0.1820   15.2620   17.8520 H   0  0  0  0  0  0  0  0  0  0  0  0
   -0.5020   15.3680   19.4820 H   0  0  0  0  0  0  0  0  0  0  0  0
    2.5660   13.8820   18.6610 C   0  0  0  0  0  0  0  0  0  0  0  0
    2.5570   14.3880   17.6880 H   0  0  0  0  0  0  0  0  0  0  0  0
    2.7940   12.8280   18.4520 H   0  0  0  0  0  0  0  0  0  0  0  0
    3.6560   14.4090   19.5320 C   0  0  0  0  0  0  0  0  0  0  0  0
    3.6070   14.5320   20.8440 N   0  0  0  0  0  0  0  0  0  0  0  0
    4.8020   15.0590   21.2710 N   0  0  0  0  0  0  0  0  0  0  0  0
    5.5570   15.2420   20.2140 C   0  0  0  0  0  0  0  0  0  0  0  0
    4.8810   14.8470   19.1010 N   0  0  0  0  0  0  0  0  0  0  0  0
    6.5600   15.6410   20.2100 H   0  0  0  0  0  0  0  0  0  0  0  0
    5.3730   14.8930   17.7520 C   0  0  0  0  0  0  0  0  0  0  0  0
    6.3460   14.3980   17.7180 H   0  0  0  0  0  0  0  0  0  0  0  0
    5.4780   15.9340   17.4340 H   0  0  0  0  0  0  0  0  0  0  0  0
    4.6580   14.3820   17.1000 H   0  0  0  0  0  0  0  0  0  0  0  0
  1 31  1  0  0  0  0
  2  7  1  0  0  0  0
  2  1  1  0  0  0  0
  3  2  2  0  0  0  0
  4  5  2  0  0  0  0
  4  3  1  0  0  0  0
  5  6  1  0  0  0  0
  6 10  1  0  0  0  0
  6  1  2  0  0  0  0
  8  3  1  0  0  0  0
  9  4  1  0  0  0  0
 11  5  1  0  0  0  0
 11 12  1  0  0  0  0
 12 13  2  0  0  0  0
 14 11  1  0  0  0  0
 15 12  1  0  0  0  0
 15 23  1  0  0  0  0
 16 15  2  0  0  0  0
 17 16  1  0  0  0  0
 17 19  2  0  0  0  0
 18 17  1  0  0  0  0
 19 20  1  0  0  0  0
 19 23  1  0  0  0  0
 20 21  2  0  0  0  0
 21 22  1  0  0  0  0
 21 25  1  0  0  0  0
 22 26  1  0  0  0  0
 23 22  2  0  0  0  0
 24 16  1  0  0  0  0
 27 30  1  0  0  0  0
 27 20  1  0  0  0  0
 27 28  1  0  0  0  0
 29 27  1  0  0  0  0
 31 32  1  1  0  0  0
 33 34  1  0  0  0  0
 33 31  1  0  0  0  0
 33 36  1  0  0  0  0
 35 33  1  0  0  0  0
 37 31  1  0  0  0  0
 37 40  1  0  0  0  0
 38 37  1  0  0  0  0
 39 37  1  0  0  0  0
 40 41  2  0  0  0  0
 41 42  1  0  0  0  0
 43 42  2  0  0  0  0
 44 40  1  0  0  0  0
 44 43  1  0  0  0  0
 45 43  1  0  0  0  0
 46 44  1  0  0  0  0
 47 46  1  0  0  0  0
 48 46  1  0  0  0  0
 49 46  1  0  0  0  0
M  END
>  <MODEL>
22

>  <REMARK>
 VINA RESULT:    -8.001      3.546      5.435
 INTER + INTRA:         -11.518
 INTER:                 -10.509
 INTRA:                  -1.009
 UNBOUND:                -0.243
  Name = 
  8 active torsions:
  status: ('A' for Active; 'I' for Inactive)
    1  A    between atoms: C_1  and  C_2
    2  A    between atoms: C_2  and  C_3
    3  A    between atoms: C_2  and  C_10
    4  A    between atoms: C_3  and  C_4
    5  A    between atoms: N_8  and  C_9
    6  A    between atoms: C_14  and  N_15
    7  A    between atoms: C_16  and  C_18
    8  A    between atoms: C_23  and  C_24
                            x       y       z     vdW  Elec       q    Type
                         _______ _______ _______ _____ _____    ______ ____

>  <TORSDO>
F 8

$$$$
=
 OpenBabel07192307433D

 49 52  0  0  1  0  0  0  0  0999 V2000
   -0.7660   11.1190   19.9170 C   0  0  0  0  0  0  0  0  0  0  0  0
   -0.7060   11.4540   21.2750 C   0  0  0  0  0  0  0  0  0  0  0  0
    0.0910   10.7140   22.1480 C   0  0  0  0  0  0  0  0  0  0  0  0
    0.8340    9.6280   21.6800 C   0  0  0  0  0  0  0  0  0  0  0  0
    0.7850    9.2670   20.3340 C   0  0  0  0  0  0  0  0  0  0  0  0
   -0.0170   10.0180   19.4620 C   0  0  0  0  0  0  0  0  0  0  0  0
   -1.2770   12.2900   21.6710 H   0  0  0  0  0  0  0  0  0  0  0  0
    0.1380   10.9820   23.2010 H   0  0  0  0  0  0  0  0  0  0  0  0
    1.4440    9.0870   22.3960 H   0  0  0  0  0  0  0  0  0  0  0  0
   -0.0700    9.7490   18.4090 H   0  0  0  0  0  0  0  0  0  0  0  0
    1.5010    8.1860   19.7780 N   0  0  0  0  0  0  0  0  0  0  0  0
    2.2090    8.1700   18.5930 C   0  0  0  0  0  0  0  0  0  0  0  0
    2.3830    9.1130   17.8290 O   0  0  0  0  0  0  0  0  0  0  0  0
    1.5220    7.3480   20.3420 H   0  0  0  0  0  0  0  0  0  0  0  0
    2.8220    6.8540   18.2840 C   0  0  0  0  0  0  0  0  0  0  0  0
    3.8650    6.5410   17.4780 C   0  0  0  0  0  0  0  0  0  0  0  0
    4.1310    5.1000   17.5330 C   0  0  0  0  0  0  0  0  0  0  0  0
    5.3600    4.3480   16.6470 Cl  0  0  0  0  0  0  0  0  0  0  0  0
    3.2660    4.5360   18.3780 C   0  0  0  0  0  0  0  0  0  0  0  0
    2.8640    3.2950   18.9700 C   0  0  0  0  0  0  0  0  0  0  0  0
    1.8320    3.6200   19.7840 C   0  0  0  0  0  0  0  0  0  0  0  0
    1.5590    5.0600   19.7270 C   0  0  0  0  0  0  0  0  0  0  0  0
    2.4300    5.6060   18.8730 C   0  0  0  0  0  0  0  0  0  0  0  0
    4.4650    7.2190   16.8910 H   0  0  0  0  0  0  0  0  0  0  0  0
    1.2690    2.9350   20.4040 H   0  0  0  0  0  0  0  0  0  0  0  0
    0.7900    5.5730   20.2850 H   0  0  0  0  0  0  0  0  0  0  0  0
    3.4910    1.9830   18.7010 C   0  0  0  0  0  0  0  0  0  0  0  0
    2.6430    0.9510   18.9440 F   0  0  0  0  0  0  0  0  0  0  0  0
    4.5960    1.7790   19.4620 F   0  0  0  0  0  0  0  0  0  0  0  0
    3.8860    1.8620   17.4060 F   0  0  0  0  0  0  0  0  0  0  0  0
   -1.6380   11.8890   18.9340 C   0  0  2  0  0  0  0  0  0  0  0  0
   -2.2950   12.5520   19.5120 H   0  0  0  0  0  0  0  0  0  0  0  0
   -2.5620   10.9480   18.1460 C   0  0  0  0  0  0  0  0  0  0  0  0
   -3.3960   11.5000   17.6990 H   0  0  0  0  0  0  0  0  0  0  0  0
   -2.0320   10.4380   17.3340 H   0  0  0  0  0  0  0  0  0  0  0  0
   -2.9910   10.1810   18.8010 H   0  0  0  0  0  0  0  0  0  0  0  0
   -0.7580   12.7520   18.0070 C   0  0  0  0  0  0  0  0  0  0  0  0
   -1.3830   13.3130   17.3020 H   0  0  0  0  0  0  0  0  0  0  0  0
   -0.1200   12.1010   17.3940 H   0  0  0  0  0  0  0  0  0  0  0  0
    0.1400   13.6620   18.7740 C   0  0  0  0  0  0  0  0  0  0  0  0
   -0.2420   14.6770   19.5230 N   0  0  0  0  0  0  0  0  0  0  0  0
    0.8790   15.2670   20.0540 N   0  0  0  0  0  0  0  0  0  0  0  0
    1.9220   14.5970   19.6240 C   0  0  0  0  0  0  0  0  0  0  0  0
    1.5080   13.5810   18.8200 N   0  0  0  0  0  0  0  0  0  0  0  0
    2.9540   14.8060   19.8620 H   0  0  0  0  0  0  0  0  0  0  0  0
    2.3540   12.6270   18.1580 C   0  0  0  0  0  0  0  0  0  0  0  0
    2.0500   11.6220   18.4580 H   0  0  0  0  0  0  0  0  0  0  0  0
    3.3960   12.7980   18.4450 H   0  0  0  0  0  0  0  0  0  0  0  0
    2.2480   12.7560   17.0770 H   0  0  0  0  0  0  0  0  0  0  0  0
  1  2  1  0  0  0  0
  2  7  1  0  0  0  0
  2  3  2  0  0  0  0
  3  8  1  0  0  0  0
  4  3  1  0  0  0  0
  4  9  1  0  0  0  0
  5  4  2  0  0  0  0
  6  1  2  0  0  0  0
  6  5  1  0  0  0  0
 10  6  1  0  0  0  0
 11  5  1  0  0  0  0
 11 14  1  0  0  0  0
 12 11  1  0  0  0  0
 13 12  2  0  0  0  0
 15 12  1  0  0  0  0
 15 23  1  0  0  0  0
 16 17  1  0  0  0  0
 16 15  2  0  0  0  0
 17 19  2  0  0  0  0
 18 17  1  0  0  0  0
 19 23  1  0  0  0  0
 19 20  1  0  0  0  0
 20 21  2  0  0  0  0
 21 25  1  0  0  0  0
 22 21  1  0  0  0  0
 22 26  1  0  0  0  0
 23 22  2  0  0  0  0
 24 16  1  0  0  0  0
 27 28  1  0  0  0  0
 27 20  1  0  0  0  0
 27 29  1  0  0  0  0
 30 27  1  0  0  0  0
 31 32  1  1  0  0  0
 31  1  1  0  0  0  0
 33 36  1  0  0  0  0
 33 31  1  0  0  0  0
 34 33  1  0  0  0  0
 35 33  1  0  0  0  0
 37 40  1  0  0  0  0
 37 31  1  0  0  0  0
 38 37  1  0  0  0  0
 39 37  1  0  0  0  0
 40 44  1  0  0  0  0
 40 41  2  0  0  0  0
 41 42  1  0  0  0  0
 43 45  1  0  0  0  0
 43 42  2  0  0  0  0
 44 43  1  0  0  0  0
 46 48  1  0  0  0  0
 46 47  1  0  0  0  0
 46 44  1  0  0  0  0
 49 46  1  0  0  0  0
M  END
>  <MODEL>
23

>  <REMARK>
 VINA RESULT:    -7.955      2.772      4.129
 INTER + INTRA:         -11.454
 INTER:                 -10.760
 INTRA:                  -0.694
 UNBOUND:                -0.243
  Name = 
  8 active torsions:
  status: ('A' for Active; 'I' for Inactive)
    1  A    between atoms: C_1  and  C_2
    2  A    between atoms: C_2  and  C_3
    3  A    between atoms: C_2  and  C_10
    4  A    between atoms: C_3  and  C_4
    5  A    between atoms: N_8  and  C_9
    6  A    between atoms: C_14  and  N_15
    7  A    between atoms: C_16  and  C_18
    8  A    between atoms: C_23  and  C_24
                            x       y       z     vdW  Elec       q    Type
                         _______ _______ _______ _____ _____    ______ ____

>  <TORSDO>
F 8

$$$$
=
 OpenBabel07192307433D

 49 52  0  0  1  0  0  0  0  0999 V2000
    0.1220   12.3790   18.9410 C   0  0  0  0  0  0  0  0  0  0  0  0
    1.1330   13.1600   18.3670 C   0  0  0  0  0  0  0  0  0  0  0  0
    2.3310   12.5740   17.9620 C   0  0  0  0  0  0  0  0  0  0  0  0
    2.5410   11.2030   18.1290 C   0  0  0  0  0  0  0  0  0  0  0  0
    1.5560   10.4040   18.7070 C   0  0  0  0  0  0  0  0  0  0  0  0
    0.3510   11.0010   19.1090 C   0  0  0  0  0  0  0  0  0  0  0  0
    1.0030   14.2300   18.2280 H   0  0  0  0  0  0  0  0  0  0  0  0
    3.1110   13.1840   17.5120 H   0  0  0  0  0  0  0  0  0  0  0  0
    3.4880   10.7920   17.7930 H   0  0  0  0  0  0  0  0  0  0  0  0
   -0.4280   10.3930   19.5650 H   0  0  0  0  0  0  0  0  0  0  0  0
    1.6840    9.0140   18.9150 N   0  0  0  0  0  0  0  0  0  0  0  0
    1.7100    8.3450   20.1220 C   0  0  0  0  0  0  0  0  0  0  0  0
    1.5800    8.8380   21.2370 O   0  0  0  0  0  0  0  0  0  0  0  0
    1.7180    8.4540   18.0730 H   0  0  0  0  0  0  0  0  0  0  0  0
    1.8890    6.8780   19.9860 C   0  0  0  0  0  0  0  0  0  0  0  0
    1.3500    5.8600   20.6980 C   0  0  0  0  0  0  0  0  0  0  0  0
    1.7940    4.5720   20.1550 C   0  0  0  0  0  0  0  0  0  0  0  0
    1.3240    3.0810   20.7990 Cl  0  0  0  0  0  0  0  0  0  0  0  0
    2.5880    4.8000   19.1070 C   0  0  0  0  0  0  0  0  0  0  0  0
    3.3730    4.1700   18.0880 C   0  0  0  0  0  0  0  0  0  0  0  0
    3.8950    5.1950   17.3720 C   0  0  0  0  0  0  0  0  0  0  0  0
    3.4580    6.4840   17.9180 C   0  0  0  0  0  0  0  0  0  0  0  0
    2.6700    6.2360   18.9670 C   0  0  0  0  0  0  0  0  0  0  0  0
    0.6630    5.9320   21.5280 H   0  0  0  0  0  0  0  0  0  0  0  0
    4.5460    5.1050   16.5130 H   0  0  0  0  0  0  0  0  0  0  0  0
    3.7310    7.4530   17.5250 H   0  0  0  0  0  0  0  0  0  0  0  0
    3.5290    2.7090   17.9170 C   0  0  0  0  0  0  0  0  0  0  0  0
    4.4540    2.4010   16.9720 F   0  0  0  0  0  0  0  0  0  0  0  0
    2.3680    2.1110   17.5480 F   0  0  0  0  0  0  0  0  0  0  0  0
    3.9300    2.1020   19.0640 F   0  0  0  0  0  0  0  0  0  0  0  0
   -1.1940   12.9820   19.4140 C   0  0  2  0  0  0  0  0  0  0  0  0
   -1.5910   13.6040   18.6000 H   0  0  0  0  0  0  0  0  0  0  0  0
   -0.9850   13.9200   20.6110 C   0  0  0  0  0  0  0  0  0  0  0  0
   -0.4660   14.8360   20.3070 H   0  0  0  0  0  0  0  0  0  0  0  0
   -1.9340   14.2160   21.0710 H   0  0  0  0  0  0  0  0  0  0  0  0
   -0.3740   13.4390   21.3830 H   0  0  0  0  0  0  0  0  0  0  0  0
   -2.2110   11.8640   19.7200 C   0  0  0  0  0  0  0  0  0  0  0  0
   -2.6590   12.0170   20.7080 H   0  0  0  0  0  0  0  0  0  0  0  0
   -1.6910   10.8970   19.7710 H   0  0  0  0  0  0  0  0  0  0  0  0
   -3.2570   11.7520   18.6640 C   0  0  0  0  0  0  0  0  0  0  0  0
   -3.1080   11.1870   17.4820 N   0  0  0  0  0  0  0  0  0  0  0  0
   -4.2950   11.2950   16.8010 N   0  0  0  0  0  0  0  0  0  0  0  0
   -5.1470   11.9170   17.5800 C   0  0  0  0  0  0  0  0  0  0  0  0
   -4.5410   12.2220   18.7600 N   0  0  0  0  0  0  0  0  0  0  0  0
   -6.1720   12.1560   17.3400 H   0  0  0  0  0  0  0  0  0  0  0  0
   -5.1470   12.9050   19.8700 C   0  0  0  0  0  0  0  0  0  0  0  0
   -5.8720   12.2370   20.3380 H   0  0  0  0  0  0  0  0  0  0  0  0
   -5.6540   13.8070   19.5140 H   0  0  0  0  0  0  0  0  0  0  0  0
   -4.3630   13.1830   20.5800 H   0  0  0  0  0  0  0  0  0  0  0  0
  1  6  1  0  0  0  0
  1 31  1  0  0  0  0
  2  1  2  0  0  0  0
  3  4  2  0  0  0  0
  3  2  1  0  0  0  0
  4  5  1  0  0  0  0
  5 11  1  0  0  0  0
  5  6  2  0  0  0  0
  6 10  1  0  0  0  0
  7  2  1  0  0  0  0
  8  3  1  0  0  0  0
  9  4  1  0  0  0  0
 11 12  1  0  0  0  0
 12 13  2  0  0  0  0
 14 11  1  0  0  0  0
 15 12  1  0  0  0  0
 15 16  1  0  0  0  0
 16 24  1  0  0  0  0
 17 16  2  0  0  0  0
 17 18  1  0  0  0  0
 19 17  1  0  0  0  0
 20 19  2  0  0  0  0
 21 22  2  0  0  0  0
 21 20  1  0  0  0  0
 22 23  1  0  0  0  0
 23 19  1  0  0  0  0
 23 15  2  0  0  0  0
 25 21  1  0  0  0  0
 26 22  1  0  0  0  0
 27 20  1  0  0  0  0
 27 30  1  0  0  0  0
 28 27  1  0  0  0  0
 29 27  1  0  0  0  0
 31 32  1  6  0  0  0
 31 37  1  0  0  0  0
 31 33  1  0  0  0  0
 33 35  1  0  0  0  0
 33 36  1  0  0  0  0
 34 33  1  0  0  0  0
 37 39  1  0  0  0  0
 37 38  1  0  0  0  0
 40 44  1  0  0  0  0
 40 37  1  0  0  0  0
 41 40  2  0  0  0  0
 42 41  1  0  0  0  0
 42 43  2  0  0  0  0
 43 44  1  0  0  0  0
 44 46  1  0  0  0  0
 45 43  1  0  0  0  0
 46 47  1  0  0  0  0
 46 49  1  0  0  0  0
 48 46  1  0  0  0  0
M  END
>  <MODEL>
24

>  <REMARK>
 VINA RESULT:    -7.950      2.033      2.948
 INTER + INTRA:         -11.447
 INTER:                 -10.396
 INTRA:                  -1.051
 UNBOUND:                -0.243
  Name = 
  8 active torsions:
  status: ('A' for Active; 'I' for Inactive)
    1  A    between atoms: C_1  and  C_2
    2  A    between atoms: C_2  and  C_3
    3  A    between atoms: C_2  and  C_10
    4  A    between atoms: C_3  and  C_4
    5  A    between atoms: N_8  and  C_9
    6  A    between atoms: C_14  and  N_15
    7  A    between atoms: C_16  and  C_18
    8  A    between atoms: C_23  and  C_24
                            x       y       z     vdW  Elec       q    Type
                         _______ _______ _______ _____ _____    ______ ____

>  <TORSDO>
F 8

$$$$
=
 OpenBabel07192307433D

 49 52  0  0  1  0  0  0  0  0999 V2000
   -0.6400   12.1170   20.8160 C   0  0  0  0  0  0  0  0  0  0  0  0
   -1.7740   12.3760   20.0370 C   0  0  0  0  0  0  0  0  0  0  0  0
   -2.0940   11.5480   18.9620 C   0  0  0  0  0  0  0  0  0  0  0  0
   -1.2850   10.4530   18.6460 C   0  0  0  0  0  0  0  0  0  0  0  0
   -0.1450   10.1780   19.4000 C   0  0  0  0  0  0  0  0  0  0  0  0
    0.1680   11.0150   20.4810 C   0  0  0  0  0  0  0  0  0  0  0  0
   -2.4200   13.2230   20.2530 H   0  0  0  0  0  0  0  0  0  0  0  0
   -2.9790   11.7510   18.3630 H   0  0  0  0  0  0  0  0  0  0  0  0
   -1.5780    9.8350   17.8040 H   0  0  0  0  0  0  0  0  0  0  0  0
    1.0560   10.8180   21.0790 H   0  0  0  0  0  0  0  0  0  0  0  0
    0.7270    9.0970   19.1510 N   0  0  0  0  0  0  0  0  0  0  0  0
    1.8760    9.1060   18.3860 C   0  0  0  0  0  0  0  0  0  0  0  0
    2.3740   10.0730   17.8200 O   0  0  0  0  0  0  0  0  0  0  0  0
    0.4930    8.2370   19.6270 H   0  0  0  0  0  0  0  0  0  0  0  0
    2.5470    7.7840   18.3050 C   0  0  0  0  0  0  0  0  0  0  0  0
    3.4420    7.3100   17.4060 C   0  0  0  0  0  0  0  0  0  0  0  0
    3.8560    5.9510   17.7730 C   0  0  0  0  0  0  0  0  0  0  0  0
    4.9600    5.0420   16.8720 Cl  0  0  0  0  0  0  0  0  0  0  0  0
    3.2290    5.6020   18.8980 C   0  0  0  0  0  0  0  0  0  0  0  0
    3.0730    4.5540   19.8610 C   0  0  0  0  0  0  0  0  0  0  0  0
    2.1890    5.0430   20.7630 C   0  0  0  0  0  0  0  0  0  0  0  0
    1.7690    6.3990   20.3950 C   0  0  0  0  0  0  0  0  0  0  0  0
    2.4010    6.7280   19.2650 C   0  0  0  0  0  0  0  0  0  0  0  0
    3.8480    7.8270   16.5500 H   0  0  0  0  0  0  0  0  0  0  0  0
    1.8270    4.5280   21.6430 H   0  0  0  0  0  0  0  0  0  0  0  0
    1.0740    7.0100   20.9520 H   0  0  0  0  0  0  0  0  0  0  0  0
    3.7640    3.2460   19.8130 C   0  0  0  0  0  0  0  0  0  0  0  0
    3.3260    2.4730   18.7880 F   0  0  0  0  0  0  0  0  0  0  0  0
    3.5870    2.5330   20.9550 F   0  0  0  0  0  0  0  0  0  0  0  0
    5.1060    3.3850   19.6480 F   0  0  0  0  0  0  0  0  0  0  0  0
   -0.2450   13.0070   21.9870 C   0  0  2  0  0  0  0  0  0  0  0  0
    0.6280   12.5540   22.4760 H   0  0  0  0  0  0  0  0  0  0  0  0
   -1.3520   13.0630   23.0500 C   0  0  0  0  0  0  0  0  0  0  0  0
   -2.2690   12.5870   22.6870 H   0  0  0  0  0  0  0  0  0  0  0  0
   -1.0590   12.5550   23.9750 H   0  0  0  0  0  0  0  0  0  0  0  0
   -1.6000   14.1010   23.3020 H   0  0  0  0  0  0  0  0  0  0  0  0
    0.1470   14.4100   21.4790 C   0  0  0  0  0  0  0  0  0  0  0  0
   -0.1320   15.1730   22.2140 H   0  0  0  0  0  0  0  0  0  0  0  0
   -0.4210   14.6440   20.5690 H   0  0  0  0  0  0  0  0  0  0  0  0
    1.5960   14.4970   21.1350 C   0  0  0  0  0  0  0  0  0  0  0  0
    2.5780   14.7490   21.9770 N   0  0  0  0  0  0  0  0  0  0  0  0
    3.7580   14.7520   21.2740 N   0  0  0  0  0  0  0  0  0  0  0  0
    3.4740   14.4950   20.0190 C   0  0  0  0  0  0  0  0  0  0  0  0
    2.1300   14.3260   19.8850 N   0  0  0  0  0  0  0  0  0  0  0  0
    4.1830   14.4240   19.2080 H   0  0  0  0  0  0  0  0  0  0  0  0
    1.4330   14.0320   18.6630 C   0  0  0  0  0  0  0  0  0  0  0  0
    2.1580   13.9920   17.8480 H   0  0  0  0  0  0  0  0  0  0  0  0
    0.6970   14.8160   18.4620 H   0  0  0  0  0  0  0  0  0  0  0  0
    0.9230   13.0710   18.7730 H   0  0  0  0  0  0  0  0  0  0  0  0
  1 31  1  0  0  0  0
  2  7  1  0  0  0  0
  2  1  2  0  0  0  0
  3  2  1  0  0  0  0
  4  3  2  0  0  0  0
  4  5  1  0  0  0  0
  5  6  2  0  0  0  0
  6  1  1  0  0  0  0
  6 10  1  0  0  0  0
  8  3  1  0  0  0  0
  9  4  1  0  0  0  0
 11  5  1  0  0  0  0
 11 14  1  0  0  0  0
 12 11  1  0  0  0  0
 13 12  2  0  0  0  0
 15 12  1  0  0  0  0
 15 23  1  0  0  0  0
 16 17  1  0  0  0  0
 16 15  2  0  0  0  0
 17 19  2  0  0  0  0
 18 17  1  0  0  0  0
 19 23  1  0  0  0  0
 19 20  1  0  0  0  0
 20 21  2  0  0  0  0
 21 25  1  0  0  0  0
 22 21  1  0  0  0  0
 22 26  1  0  0  0  0
 23 22  2  0  0  0  0
 24 16  1  0  0  0  0
 27 20  1  0  0  0  0
 27 29  1  0  0  0  0
 28 27  1  0  0  0  0
 30 27  1  0  0  0  0
 31 32  1  1  0  0  0
 31 33  1  0  0  0  0
 33 36  1  0  0  0  0
 33 35  1  0  0  0  0
 34 33  1  0  0  0  0
 37 31  1  0  0  0  0
 37 38  1  0  0  0  0
 39 37  1  0  0  0  0
 40 37  1  0  0  0  0
 40 41  2  0  0  0  0
 42 41  1  0  0  0  0
 43 42  2  0  0  0  0
 44 43  1  0  0  0  0
 44 40  1  0  0  0  0
 45 43  1  0  0  0  0
 46 49  1  0  0  0  0
 46 44  1  0  0  0  0
 47 46  1  0  0  0  0
 48 46  1  0  0  0  0
M  END
>  <MODEL>
25

>  <REMARK>
 VINA RESULT:    -7.880      3.342      5.092
 INTER + INTRA:         -11.348
 INTER:                 -10.131
 INTRA:                  -1.218
 UNBOUND:                -0.243
  Name = 
  8 active torsions:
  status: ('A' for Active; 'I' for Inactive)
    1  A    between atoms: C_1  and  C_2
    2  A    between atoms: C_2  and  C_3
    3  A    between atoms: C_2  and  C_10
    4  A    between atoms: C_3  and  C_4
    5  A    between atoms: N_8  and  C_9
    6  A    between atoms: C_14  and  N_15
    7  A    between atoms: C_16  and  C_18
    8  A    between atoms: C_23  and  C_24
                            x       y       z     vdW  Elec       q    Type
                         _______ _______ _______ _____ _____    ______ ____

>  <TORSDO>
F 8

$$$$
=
 OpenBabel07192307433D

 49 52  0  0  1  0  0  0  0  0999 V2000
    2.8540    3.6830   19.0350 C   0  0  0  0  0  0  0  0  0  0  0  0
    2.9200    2.8580   20.1650 C   0  0  0  0  0  0  0  0  0  0  0  0
    2.4980    3.3300   21.4060 C   0  0  0  0  0  0  0  0  0  0  0  0
    2.0080    4.6320   21.5400 C   0  0  0  0  0  0  0  0  0  0  0  0
    1.9410    5.4770   20.4340 C   0  0  0  0  0  0  0  0  0  0  0  0
    2.3650    4.9930   19.1870 C   0  0  0  0  0  0  0  0  0  0  0  0
    3.3010    1.8420   20.0950 H   0  0  0  0  0  0  0  0  0  0  0  0
    2.5460    2.6840   22.2800 H   0  0  0  0  0  0  0  0  0  0  0  0
    1.6860    4.9520   22.5260 H   0  0  0  0  0  0  0  0  0  0  0  0
    2.3230    5.6400   18.3130 H   0  0  0  0  0  0  0  0  0  0  0  0
    1.4630    6.8040   20.4780 N   0  0  0  0  0  0  0  0  0  0  0  0
    1.8490    7.8620   19.6790 C   0  0  0  0  0  0  0  0  0  0  0  0
    2.6470    7.8260   18.7500 O   0  0  0  0  0  0  0  0  0  0  0  0
    0.7260    6.9730   21.1490 H   0  0  0  0  0  0  0  0  0  0  0  0
    1.1680    9.1380   20.0120 C   0  0  0  0  0  0  0  0  0  0  0  0
    1.0070   10.2630   19.2760 C   0  0  0  0  0  0  0  0  0  0  0  0
    0.2170   11.2480   20.0220 C   0  0  0  0  0  0  0  0  0  0  0  0
   -0.1770   12.7760   19.4150 Cl  0  0  0  0  0  0  0  0  0  0  0  0
   -0.1160   10.7230   21.2030 C   0  0  0  0  0  0  0  0  0  0  0  0
   -0.8180   10.9720   22.4270 C   0  0  0  0  0  0  0  0  0  0  0  0
   -0.6640    9.8370   23.1500 C   0  0  0  0  0  0  0  0  0  0  0  0
    0.1310    8.8530   22.4070 C   0  0  0  0  0  0  0  0  0  0  0  0
    0.4590    9.3980   21.2330 C   0  0  0  0  0  0  0  0  0  0  0  0
    1.3580   10.4440   18.2710 H   0  0  0  0  0  0  0  0  0  0  0  0
   -1.0630    9.6530   24.1390 H   0  0  0  0  0  0  0  0  0  0  0  0
    0.3910    7.8660   22.7610 H   0  0  0  0  0  0  0  0  0  0  0  0
   -1.5330   12.2240   22.7560 C   0  0  0  0  0  0  0  0  0  0  0  0
   -2.3280   12.0870   23.8480 F   0  0  0  0  0  0  0  0  0  0  0  0
   -2.3250   12.6440   21.7360 F   0  0  0  0  0  0  0  0  0  0  0  0
   -0.6770   13.2440   23.0260 F   0  0  0  0  0  0  0  0  0  0  0  0
    3.3220    3.2120   17.6640 C   0  0  2  0  0  0  0  0  0  0  0  0
    2.8090    3.8190   16.9060 H   0  0  0  0  0  0  0  0  0  0  0  0
    2.9140    1.7560   17.3990 C   0  0  0  0  0  0  0  0  0  0  0  0
    3.3040    1.0910   18.1770 H   0  0  0  0  0  0  0  0  0  0  0  0
    1.8260    1.6330   17.3760 H   0  0  0  0  0  0  0  0  0  0  0  0
    3.3120    1.4060   16.4390 H   0  0  0  0  0  0  0  0  0  0  0  0
    4.8430    3.4270   17.5200 C   0  0  0  0  0  0  0  0  0  0  0  0
    5.2600    2.7220   16.7910 H   0  0  0  0  0  0  0  0  0  0  0  0
    5.3380    3.2030   18.4740 H   0  0  0  0  0  0  0  0  0  0  0  0
    5.1790    4.8350   17.1630 C   0  0  0  0  0  0  0  0  0  0  0  0
    4.8620    5.4460   16.0390 N   0  0  0  0  0  0  0  0  0  0  0  0
    5.3560    6.7260   16.0900 N   0  0  0  0  0  0  0  0  0  0  0  0
    5.9590    6.8740   17.2460 C   0  0  0  0  0  0  0  0  0  0  0  0
    5.8720    5.7150   17.9530 N   0  0  0  0  0  0  0  0  0  0  0  0
    6.4510    7.7690   17.5980 H   0  0  0  0  0  0  0  0  0  0  0  0
    6.4120    5.4810   19.2650 C   0  0  0  0  0  0  0  0  0  0  0  0
    6.7890    6.4270   19.6600 H   0  0  0  0  0  0  0  0  0  0  0  0
    7.2280    4.7560   19.2030 H   0  0  0  0  0  0  0  0  0  0  0  0
    5.6180    5.0850   19.9050 H   0  0  0  0  0  0  0  0  0  0  0  0
  1  6  2  0  0  0  0
  1  2  1  0  0  0  0
  2  3  2  0  0  0  0
  3  4  1  0  0  0  0
  3  8  1  0  0  0  0
  4  9  1  0  0  0  0
  5 11  1  0  0  0  0
  5  4  2  0  0  0  0
  6  5  1  0  0  0  0
  7  2  1  0  0  0  0
 10  6  1  0  0  0  0
 11 14  1  0  0  0  0
 12 15  1  0  0  0  0
 12 11  1  0  0  0  0
 13 12  2  0  0  0  0
 15 23  1  0  0  0  0
 16 15  2  0  0  0  0
 16 17  1  0  0  0  0
 17 19  2  0  0  0  0
 18 17  1  0  0  0  0
 19 23  1  0  0  0  0
 19 20  1  0  0  0  0
 20 27  1  0  0  0  0
 20 21  2  0  0  0  0
 21 25  1  0  0  0  0
 22 26  1  0  0  0  0
 22 21  1  0  0  0  0
 23 22  2  0  0  0  0
 24 16  1  0  0  0  0
 27 30  1  0  0  0  0
 27 28  1  0  0  0  0
 29 27  1  0  0  0  0
 31 32  1  6  0  0  0
 31  1  1  0  0  0  0
 33 31  1  0  0  0  0
 33 34  1  0  0  0  0
 35 33  1  0  0  0  0
 36 33  1  0  0  0  0
 37 31  1  0  0  0  0
 37 39  1  0  0  0  0
 38 37  1  0  0  0  0
 40 37  1  0  0  0  0
 40 44  1  0  0  0  0
 41 42  1  0  0  0  0
 41 40  2  0  0  0  0
 42 43  2  0  0  0  0
 43 45  1  0  0  0  0
 43 44  1  0  0  0  0
 44 46  1  0  0  0  0
 46 47  1  0  0  0  0
 46 49  1  0  0  0  0
 48 46  1  0  0  0  0
M  END
>  <MODEL>
26

>  <REMARK>
 VINA RESULT:    -7.834      5.713      9.298
 INTER + INTRA:         -11.284
 INTER:                 -10.603
 INTRA:                  -0.680
 UNBOUND:                -0.243
  Name = 
  8 active torsions:
  status: ('A' for Active; 'I' for Inactive)
    1  A    between atoms: C_1  and  C_2
    2  A    between atoms: C_2  and  C_3
    3  A    between atoms: C_2  and  C_10
    4  A    between atoms: C_3  and  C_4
    5  A    between atoms: N_8  and  C_9
    6  A    between atoms: C_14  and  N_15
    7  A    between atoms: C_16  and  C_18
    8  A    between atoms: C_23  and  C_24
                            x       y       z     vdW  Elec       q    Type
                         _______ _______ _______ _____ _____    ______ ____

>  <TORSDO>
F 8

$$$$
=
 OpenBabel07192307433D

 49 52  0  0  1  0  0  0  0  0999 V2000
    3.1240    4.6720   17.4430 C   0  0  0  0  0  0  0  0  0  0  0  0
    4.4820    4.7950   17.1220 C   0  0  0  0  0  0  0  0  0  0  0  0
    5.1470    6.0030   17.3250 C   0  0  0  0  0  0  0  0  0  0  0  0
    4.4670    7.1070   17.8450 C   0  0  0  0  0  0  0  0  0  0  0  0
    3.1120    7.0150   18.1640 C   0  0  0  0  0  0  0  0  0  0  0  0
    2.4520    5.7950   17.9600 C   0  0  0  0  0  0  0  0  0  0  0  0
    5.0380    3.9570   16.7110 H   0  0  0  0  0  0  0  0  0  0  0  0
    6.2020    6.0920   17.0790 H   0  0  0  0  0  0  0  0  0  0  0  0
    5.0280    8.0250   17.9900 H   0  0  0  0  0  0  0  0  0  0  0  0
    1.3940    5.7050   18.1990 H   0  0  0  0  0  0  0  0  0  0  0  0
    2.3490    8.0780   18.6910 N   0  0  0  0  0  0  0  0  0  0  0  0
    1.6830    8.1140   19.9000 C   0  0  0  0  0  0  0  0  0  0  0  0
    1.6740    7.2400   20.7590 O   0  0  0  0  0  0  0  0  0  0  0  0
    2.3310    8.9170   18.1260 H   0  0  0  0  0  0  0  0  0  0  0  0
    0.9450    9.3800   20.1360 C   0  0  0  0  0  0  0  0  0  0  0  0
    0.7230   10.4310   19.3120 C   0  0  0  0  0  0  0  0  0  0  0  0
   -0.1060   11.4360   19.9860 C   0  0  0  0  0  0  0  0  0  0  0  0
   -0.5780   12.8890   19.2610 Cl  0  0  0  0  0  0  0  0  0  0  0  0
   -0.4000   10.9960   21.2110 C   0  0  0  0  0  0  0  0  0  0  0  0
   -1.1000   11.3130   22.4200 C   0  0  0  0  0  0  0  0  0  0  0  0
   -0.8850   10.2510   23.2320 C   0  0  0  0  0  0  0  0  0  0  0  0
   -0.0520    9.2470   22.5610 C   0  0  0  0  0  0  0  0  0  0  0  0
    0.2380    9.7070   21.3410 C   0  0  0  0  0  0  0  0  0  0  0  0
    1.0540   10.5450   18.2900 H   0  0  0  0  0  0  0  0  0  0  0  0
   -1.2640   10.1310   24.2380 H   0  0  0  0  0  0  0  0  0  0  0  0
    0.2600    8.3060   22.9920 H   0  0  0  0  0  0  0  0  0  0  0  0
   -1.8710   12.5540   22.6550 C   0  0  0  0  0  0  0  0  0  0  0  0
   -1.0690   13.6460   22.7420 F   0  0  0  0  0  0  0  0  0  0  0  0
   -2.5930   12.4970   23.8030 F   0  0  0  0  0  0  0  0  0  0  0  0
   -2.7560   12.8020   21.6540 F   0  0  0  0  0  0  0  0  0  0  0  0
    2.3560    3.3760   17.2200 C   0  0  2  0  0  0  0  0  0  0  0  0
    2.5030    3.0720   16.1750 H   0  0  0  0  0  0  0  0  0  0  0  0
    0.8450    3.5800   17.4010 C   0  0  0  0  0  0  0  0  0  0  0  0
    0.3700    2.6710   17.7850 H   0  0  0  0  0  0  0  0  0  0  0  0
    0.6220    4.3910   18.1030 H   0  0  0  0  0  0  0  0  0  0  0  0
    0.3660    3.8220   16.4460 H   0  0  0  0  0  0  0  0  0  0  0  0
    2.9090    2.2670   18.1380 C   0  0  0  0  0  0  0  0  0  0  0  0
    3.9990    2.2020   18.0440 H   0  0  0  0  0  0  0  0  0  0  0  0
    2.5190    1.2920   17.8140 H   0  0  0  0  0  0  0  0  0  0  0  0
    2.5000    2.4600   19.5590 C   0  0  0  0  0  0  0  0  0  0  0  0
    1.2770    2.7020   19.9870 N   0  0  0  0  0  0  0  0  0  0  0  0
    1.3160    2.8230   21.3550 N   0  0  0  0  0  0  0  0  0  0  0  0
    2.5590    2.6460   21.7350 C   0  0  0  0  0  0  0  0  0  0  0  0
    3.3380    2.4140   20.6430 N   0  0  0  0  0  0  0  0  0  0  0  0
    2.9240    2.6760   22.7500 H   0  0  0  0  0  0  0  0  0  0  0  0
    4.7550    2.1750   20.6500 C   0  0  0  0  0  0  0  0  0  0  0  0
    4.9380    1.1740   21.0460 H   0  0  0  0  0  0  0  0  0  0  0  0
    5.2490    2.9170   21.2830 H   0  0  0  0  0  0  0  0  0  0  0  0
    5.1290    2.2600   19.6260 H   0  0  0  0  0  0  0  0  0  0  0  0
  1  6  1  0  0  0  0
  2  3  1  0  0  0  0
  2  1  2  0  0  0  0
  3  4  2  0  0  0  0
  4  9  1  0  0  0  0
  4  5  1  0  0  0  0
  5 11  1  0  0  0  0
  6  5  2  0  0  0  0
  6 10  1  0  0  0  0
  7  2  1  0  0  0  0
  8  3  1  0  0  0  0
 11 12  1  0  0  0  0
 12 15  1  0  0  0  0
 12 13  2  0  0  0  0
 14 11  1  0  0  0  0
 15 23  1  0  0  0  0
 16 17  1  0  0  0  0
 16 15  2  0  0  0  0
 17 19  2  0  0  0  0
 18 17  1  0  0  0  0
 19 23  1  0  0  0  0
 19 20  1  0  0  0  0
 20 27  1  0  0  0  0
 20 21  2  0  0  0  0
 21 25  1  0  0  0  0
 22 26  1  0  0  0  0
 22 21  1  0  0  0  0
 23 22  2  0  0  0  0
 24 16  1  0  0  0  0
 27 28  1  0  0  0  0
 27 29  1  0  0  0  0
 30 27  1  0  0  0  0
 31 32  1  6  0  0  0
 31 33  1  0  0  0  0
 31  1  1  0  0  0  0
 31 37  1  0  0  0  0
 33 34  1  0  0  0  0
 33 35  1  0  0  0  0
 36 33  1  0  0  0  0
 37 40  1  0  0  0  0
 38 37  1  0  0  0  0
 39 37  1  0  0  0  0
 40 41  2  0  0  0  0
 40 44  1  0  0  0  0
 41 42  1  0  0  0  0
 42 43  2  0  0  0  0
 43 45  1  0  0  0  0
 44 46  1  0  0  0  0
 44 43  1  0  0  0  0
 46 47  1  0  0  0  0
 46 48  1  0  0  0  0
 49 46  1  0  0  0  0
M  END
>  <MODEL>
27

>  <REMARK>
 VINA RESULT:    -7.827      5.650      9.495
 INTER + INTRA:         -11.273
 INTER:                 -10.866
 INTRA:                  -0.407
 UNBOUND:                -0.243
  Name = 
  8 active torsions:
  status: ('A' for Active; 'I' for Inactive)
    1  A    between atoms: C_1  and  C_2
    2  A    between atoms: C_2  and  C_3
    3  A    between atoms: C_2  and  C_10
    4  A    between atoms: C_3  and  C_4
    5  A    between atoms: N_8  and  C_9
    6  A    between atoms: C_14  and  N_15
    7  A    between atoms: C_16  and  C_18
    8  A    between atoms: C_23  and  C_24
                            x       y       z     vdW  Elec       q    Type
                         _______ _______ _______ _____ _____    ______ ____

>  <TORSDO>
F 8

$$$$
=
 OpenBabel07192307433D

 49 52  0  0  1  0  0  0  0  0999 V2000
    2.6340    4.9180   18.6680 C   0  0  0  0  0  0  0  0  0  0  0  0
    2.3270    4.0130   19.6910 C   0  0  0  0  0  0  0  0  0  0  0  0
    1.7800    4.4650   20.8910 C   0  0  0  0  0  0  0  0  0  0  0  0
    1.5360    5.8260   21.0890 C   0  0  0  0  0  0  0  0  0  0  0  0
    1.8420    6.7500   20.0910 C   0  0  0  0  0  0  0  0  0  0  0  0
    2.3890    6.2860   18.8860 C   0  0  0  0  0  0  0  0  0  0  0  0
    2.5100    2.9480   19.5700 H   0  0  0  0  0  0  0  0  0  0  0  0
    1.5390    3.7570   21.6800 H   0  0  0  0  0  0  0  0  0  0  0  0
    1.1040    6.1300   22.0380 H   0  0  0  0  0  0  0  0  0  0  0  0
    2.6370    6.9940   18.0960 H   0  0  0  0  0  0  0  0  0  0  0  0
    1.6300    8.1410   20.2070 N   0  0  0  0  0  0  0  0  0  0  0  0
    0.5430    8.7800   20.7690 C   0  0  0  0  0  0  0  0  0  0  0  0
   -0.4190    8.2500   21.3130 O   0  0  0  0  0  0  0  0  0  0  0  0
    2.3890    8.7200   19.8740 H   0  0  0  0  0  0  0  0  0  0  0  0
    0.6230   10.2610   20.7010 C   0  0  0  0  0  0  0  0  0  0  0  0
    0.2240   11.2010   21.5890 C   0  0  0  0  0  0  0  0  0  0  0  0
    0.5590   12.5400   21.0930 C   0  0  0  0  0  0  0  0  0  0  0  0
    0.2020   13.9600   21.9390 Cl  0  0  0  0  0  0  0  0  0  0  0  0
    1.1710   12.4190   19.9130 C   0  0  0  0  0  0  0  0  0  0  0  0
    1.7810   13.1490   18.8430 C   0  0  0  0  0  0  0  0  0  0  0  0
    2.1900   12.2000   17.9670 C   0  0  0  0  0  0  0  0  0  0  0  0
    1.8510   10.8610   18.4590 C   0  0  0  0  0  0  0  0  0  0  0  0
    1.2340   11.0030   19.6350 C   0  0  0  0  0  0  0  0  0  0  0  0
   -0.2420   11.0400   22.5490 H   0  0  0  0  0  0  0  0  0  0  0  0
    2.6990   12.3770   17.0290 H   0  0  0  0  0  0  0  0  0  0  0  0
    2.0720    9.9340   17.9490 H   0  0  0  0  0  0  0  0  0  0  0  0
    1.9020   14.6230   18.7800 C   0  0  0  0  0  0  0  0  0  0  0  0
    2.4810   15.1370   19.8940 F   0  0  0  0  0  0  0  0  0  0  0  0
    0.6950   15.2280   18.6420 F   0  0  0  0  0  0  0  0  0  0  0  0
    2.6600   15.0270   17.7270 F   0  0  0  0  0  0  0  0  0  0  0  0
    3.2490    4.4680   17.3490 C   0  0  2  0  0  0  0  0  0  0  0  0
    2.4450    4.4090   16.6040 H   0  0  0  0  0  0  0  0  0  0  0  0
    3.8400    3.0550   17.4580 C   0  0  0  0  0  0  0  0  0  0  0  0
    4.6700    3.0300   18.1730 H   0  0  0  0  0  0  0  0  0  0  0  0
    3.0960    2.3240   17.7910 H   0  0  0  0  0  0  0  0  0  0  0  0
    4.2310    2.7190   16.4910 H   0  0  0  0  0  0  0  0  0  0  0  0
    4.2910    5.5000   16.8700 C   0  0  0  0  0  0  0  0  0  0  0  0
    3.9510    6.5170   17.0950 H   0  0  0  0  0  0  0  0  0  0  0  0
    4.3860    5.4470   15.7770 H   0  0  0  0  0  0  0  0  0  0  0  0
    5.6420    5.2420   17.4470 C   0  0  0  0  0  0  0  0  0  0  0  0
    6.0150    5.4910   18.6870 N   0  0  0  0  0  0  0  0  0  0  0  0
    7.3310    5.1220   18.8230 N   0  0  0  0  0  0  0  0  0  0  0  0
    7.7330    4.6490   17.6670 C   0  0  0  0  0  0  0  0  0  0  0  0
    6.7080    4.7030   16.7740 N   0  0  0  0  0  0  0  0  0  0  0  0
    8.7190    4.2720   17.4420 H   0  0  0  0  0  0  0  0  0  0  0  0
    6.7570    4.2790   15.4020 C   0  0  0  0  0  0  0  0  0  0  0  0
    7.5470    4.8340   14.8930 H   0  0  0  0  0  0  0  0  0  0  0  0
    5.7960    4.4800   14.9200 H   0  0  0  0  0  0  0  0  0  0  0  0
    6.9620    3.2040   15.3750 H   0  0  0  0  0  0  0  0  0  0  0  0
  1  6  2  0  0  0  0
  1  2  1  0  0  0  0
  2  3  2  0  0  0  0
  3  4  1  0  0  0  0
  3  8  1  0  0  0  0
  4  9  1  0  0  0  0
  5 11  1  0  0  0  0
  5  4  2  0  0  0  0
  6  5  1  0  0  0  0
  7  2  1  0  0  0  0
 10  6  1  0  0  0  0
 11 12  1  0  0  0  0
 12 13  2  0  0  0  0
 14 11  1  0  0  0  0
 15 12  1  0  0  0  0
 15 16  1  0  0  0  0
 16 24  1  0  0  0  0
 17 16  2  0  0  0  0
 17 18  1  0  0  0  0
 19 17  1  0  0  0  0
 20 19  2  0  0  0  0
 21 22  2  0  0  0  0
 21 20  1  0  0  0  0
 22 23  1  0  0  0  0
 23 19  1  0  0  0  0
 23 15  2  0  0  0  0
 25 21  1  0  0  0  0
 26 22  1  0  0  0  0
 27 20  1  0  0  0  0
 27 28  1  0  0  0  0
 29 27  1  0  0  0  0
 30 27  1  0  0  0  0
 31 32  1  6  0  0  0
 31 33  1  0  0  0  0
 31  1  1  0  0  0  0
 33 35  1  0  0  0  0
 33 34  1  0  0  0  0
 36 33  1  0  0  0  0
 37 38  1  0  0  0  0
 37 31  1  0  0  0  0
 37 40  1  0  0  0  0
 39 37  1  0  0  0  0
 40 41  2  0  0  0  0
 41 42  1  0  0  0  0
 43 42  2  0  0  0  0
 44 40  1  0  0  0  0
 44 43  1  0  0  0  0
 45 43  1  0  0  0  0
 46 44  1  0  0  0  0
 47 46  1  0  0  0  0
 48 46  1  0  0  0  0
 49 46  1  0  0  0  0
M  END
>  <MODEL>
28

>  <REMARK>
 VINA RESULT:    -7.785      5.370      9.075
 INTER + INTRA:         -11.214
 INTER:                 -10.334
 INTRA:                  -0.880
 UNBOUND:                -0.243
  Name = 
  8 active torsions:
  status: ('A' for Active; 'I' for Inactive)
    1  A    between atoms: C_1  and  C_2
    2  A    between atoms: C_2  and  C_3
    3  A    between atoms: C_2  and  C_10
    4  A    between atoms: C_3  and  C_4
    5  A    between atoms: N_8  and  C_9
    6  A    between atoms: C_14  and  N_15
    7  A    between atoms: C_16  and  C_18
    8  A    between atoms: C_23  and  C_24
                            x       y       z     vdW  Elec       q    Type
                         _______ _______ _______ _____ _____    ______ ____

>  <TORSDO>
F 8

$$$$
=
 OpenBabel07192307433D

 49 52  0  0  1  0  0  0  0  0999 V2000
   -0.3110   11.4420   21.3580 C   0  0  0  0  0  0  0  0  0  0  0  0
   -0.7990   11.2110   22.6500 C   0  0  0  0  0  0  0  0  0  0  0  0
   -0.5590    9.9950   23.2860 C   0  0  0  0  0  0  0  0  0  0  0  0
    0.1660    8.9890   22.6420 C   0  0  0  0  0  0  0  0  0  0  0  0
    0.6560    9.1890   21.3520 C   0  0  0  0  0  0  0  0  0  0  0  0
    0.4120   10.4180   20.7200 C   0  0  0  0  0  0  0  0  0  0  0  0
   -1.3720   11.9710   23.1760 H   0  0  0  0  0  0  0  0  0  0  0  0
   -0.9370    9.8220   24.2920 H   0  0  0  0  0  0  0  0  0  0  0  0
    0.3320    8.0620   23.1800 H   0  0  0  0  0  0  0  0  0  0  0  0
    0.7840   10.5900   19.7120 H   0  0  0  0  0  0  0  0  0  0  0  0
    1.3960    8.2300   20.6280 N   0  0  0  0  0  0  0  0  0  0  0  0
    1.7550    8.2790   19.2960 C   0  0  0  0  0  0  0  0  0  0  0  0
    1.5350    9.1930   18.5100 O   0  0  0  0  0  0  0  0  0  0  0  0
    1.7270    7.4440   21.1700 H   0  0  0  0  0  0  0  0  0  0  0  0
    2.5090    7.0850   18.8390 C   0  0  0  0  0  0  0  0  0  0  0  0
    3.5470    6.9820   17.9750 C   0  0  0  0  0  0  0  0  0  0  0  0
    3.9870    5.5860   17.8780 C   0  0  0  0  0  0  0  0  0  0  0  0
    5.2590    5.0800   16.8850 Cl  0  0  0  0  0  0  0  0  0  0  0  0
    3.2320    4.8410   18.6880 C   0  0  0  0  0  0  0  0  0  0  0  0
    3.0080    3.5100   19.1660 C   0  0  0  0  0  0  0  0  0  0  0  0
    1.9790    3.6250   20.0390 C   0  0  0  0  0  0  0  0  0  0  0  0
    1.5340    5.0190   20.1340 C   0  0  0  0  0  0  0  0  0  0  0  0
    2.2950    5.7470   19.3120 C   0  0  0  0  0  0  0  0  0  0  0  0
    4.0360    7.7820   17.4400 H   0  0  0  0  0  0  0  0  0  0  0  0
    1.5300    2.8190   20.6040 H   0  0  0  0  0  0  0  0  0  0  0  0
    0.7320    5.3770   20.7640 H   0  0  0  0  0  0  0  0  0  0  0  0
    3.7770    2.3160   18.7480 C   0  0  0  0  0  0  0  0  0  0  0  0
    4.9270    2.1760   19.4540 F   0  0  0  0  0  0  0  0  0  0  0  0
    4.1180    2.3630   17.4350 F   0  0  0  0  0  0  0  0  0  0  0  0
    3.0710    1.1690   18.9250 F   0  0  0  0  0  0  0  0  0  0  0  0
   -0.5660   12.7500   20.6200 C   0  0  2  0  0  0  0  0  0  0  0  0
   -0.9110   12.5040   19.6070 H   0  0  0  0  0  0  0  0  0  0  0  0
    0.7270   13.5610   20.4500 C   0  0  0  0  0  0  0  0  0  0  0  0
    1.6030   12.9050   20.4330 H   0  0  0  0  0  0  0  0  0  0  0  0
    0.7290   14.1390   19.5200 H   0  0  0  0  0  0  0  0  0  0  0  0
    0.8600   14.2640   21.2810 H   0  0  0  0  0  0  0  0  0  0  0  0
   -1.6700   13.5560   21.3350 C   0  0  0  0  0  0  0  0  0  0  0  0
   -1.5590   14.6250   21.1220 H   0  0  0  0  0  0  0  0  0  0  0  0
   -1.5580   13.4500   22.4220 H   0  0  0  0  0  0  0  0  0  0  0  0
   -3.0360   13.0730   20.9790 C   0  0  0  0  0  0  0  0  0  0  0  0
   -3.4280   12.6710   19.7860 N   0  0  0  0  0  0  0  0  0  0  0  0
   -4.7520   12.3140   19.8670 N   0  0  0  0  0  0  0  0  0  0  0  0
   -5.1390   12.5000   21.1070 C   0  0  0  0  0  0  0  0  0  0  0  0
   -4.0960   12.9740   21.8410 N   0  0  0  0  0  0  0  0  0  0  0  0
   -6.1270   12.3100   21.5000 H   0  0  0  0  0  0  0  0  0  0  0  0
   -4.1260   13.3010   23.2400 C   0  0  0  0  0  0  0  0  0  0  0  0
   -4.7750   12.5870   23.7520 H   0  0  0  0  0  0  0  0  0  0  0  0
   -4.5160   14.3140   23.3720 H   0  0  0  0  0  0  0  0  0  0  0  0
   -3.1070   13.2470   23.6340 H   0  0  0  0  0  0  0  0  0  0  0  0
  1  2  1  0  0  0  0
  2  7  1  0  0  0  0
  2  3  2  0  0  0  0
  3  8  1  0  0  0  0
  4  9  1  0  0  0  0
  4  3  1  0  0  0  0
  5  4  2  0  0  0  0
  6  5  1  0  0  0  0
  6  1  2  0  0  0  0
 10  6  1  0  0  0  0
 11 14  1  0  0  0  0
 11  5  1  0  0  0  0
 12 11  1  0  0  0  0
 13 12  2  0  0  0  0
 15 12  1  0  0  0  0
 15 23  1  0  0  0  0
 16 15  2  0  0  0  0
 17 16  1  0  0  0  0
 17 19  2  0  0  0  0
 18 17  1  0  0  0  0
 19 20  1  0  0  0  0
 19 23  1  0  0  0  0
 20 21  2  0  0  0  0
 21 22  1  0  0  0  0
 21 25  1  0  0  0  0
 22 26  1  0  0  0  0
 23 22  2  0  0  0  0
 24 16  1  0  0  0  0
 27 30  1  0  0  0  0
 27 20  1  0  0  0  0
 27 28  1  0  0  0  0
 29 27  1  0  0  0  0
 31 32  1  6  0  0  0
 31 37  1  0  0  0  0
 31  1  1  0  0  0  0
 33 31  1  0  0  0  0
 33 36  1  0  0  0  0
 34 33  1  0  0  0  0
 35 33  1  0  0  0  0
 37 39  1  0  0  0  0
 38 37  1  0  0  0  0
 40 37  1  0  0  0  0
 40 44  1  0  0  0  0
 41 42  1  0  0  0  0
 41 40  2  0  0  0  0
 42 43  2  0  0  0  0
 43 45  1  0  0  0  0
 43 44  1  0  0  0  0
 44 46  1  0  0  0  0
 46 48  1  0  0  0  0
 46 49  1  0  0  0  0
 46 47  1  0  0  0  0
M  END
>  <MODEL>
29

>  <REMARK>
 VINA RESULT:    -7.750      2.892      3.759
 INTER + INTRA:         -11.165
 INTER:                 -10.922
 INTRA:                  -0.243
 UNBOUND:                -0.243
  Name = 
  8 active torsions:
  status: ('A' for Active; 'I' for Inactive)
    1  A    between atoms: C_1  and  C_2
    2  A    between atoms: C_2  and  C_3
    3  A    between atoms: C_2  and  C_10
    4  A    between atoms: C_3  and  C_4
    5  A    between atoms: N_8  and  C_9
    6  A    between atoms: C_14  and  N_15
    7  A    between atoms: C_16  and  C_18
    8  A    between atoms: C_23  and  C_24
                            x       y       z     vdW  Elec       q    Type
                         _______ _______ _______ _____ _____    ______ ____

>  <TORSDO>
F 8

$$$$
=
 OpenBabel07192307433D

 49 52  0  0  1  0  0  0  0  0999 V2000
    3.0140    4.4250   18.9060 C   0  0  0  0  0  0  0  0  0  0  0  0
    2.5580    3.7540   20.0470 C   0  0  0  0  0  0  0  0  0  0  0  0
    1.8720    4.4460   21.0440 C   0  0  0  0  0  0  0  0  0  0  0  0
    1.6370    5.8180   20.9200 C   0  0  0  0  0  0  0  0  0  0  0  0
    2.0890    6.5120   19.7980 C   0  0  0  0  0  0  0  0  0  0  0  0
    2.7750    5.8070   18.7990 C   0  0  0  0  0  0  0  0  0  0  0  0
    2.7290    2.6880   20.1760 H   0  0  0  0  0  0  0  0  0  0  0  0
    1.5150    3.9190   21.9260 H   0  0  0  0  0  0  0  0  0  0  0  0
    1.0940    6.3120   21.7190 H   0  0  0  0  0  0  0  0  0  0  0  0
    3.1380    6.3330   17.9180 H   0  0  0  0  0  0  0  0  0  0  0  0
    1.8970    7.8950   19.5920 N   0  0  0  0  0  0  0  0  0  0  0  0
    1.9000    8.5720   18.3890 C   0  0  0  0  0  0  0  0  0  0  0  0
    2.0240    8.0830   17.2720 O   0  0  0  0  0  0  0  0  0  0  0  0
    1.6950    8.4300   20.4260 H   0  0  0  0  0  0  0  0  0  0  0  0
    1.6970   10.0360   18.5300 C   0  0  0  0  0  0  0  0  0  0  0  0
    2.4580   11.0700   18.1000 C   0  0  0  0  0  0  0  0  0  0  0  0
    1.8160   12.3450   18.4400 C   0  0  0  0  0  0  0  0  0  0  0  0
    2.4860   13.8510   18.0640 Cl  0  0  0  0  0  0  0  0  0  0  0  0
    0.6630   12.0920   19.0610 C   0  0  0  0  0  0  0  0  0  0  0  0
   -0.4840   12.6970   19.6680 C   0  0  0  0  0  0  0  0  0  0  0  0
   -1.2460   11.6550   20.0810 C   0  0  0  0  0  0  0  0  0  0  0  0
   -0.6030   10.3790   19.7480 C   0  0  0  0  0  0  0  0  0  0  0  0
    0.5510   10.6530   19.1330 C   0  0  0  0  0  0  0  0  0  0  0  0
    3.3880   11.0180   17.5540 H   0  0  0  0  0  0  0  0  0  0  0  0
   -2.2000   11.7240   20.5870 H   0  0  0  0  0  0  0  0  0  0  0  0
   -1.0080    9.4010   19.9650 H   0  0  0  0  0  0  0  0  0  0  0  0
   -0.7180   14.1530   19.7810 C   0  0  0  0  0  0  0  0  0  0  0  0
    0.1480   14.7440   20.6440 F   0  0  0  0  0  0  0  0  0  0  0  0
   -1.9710   14.4380   20.2170 F   0  0  0  0  0  0  0  0  0  0  0  0
   -0.5690   14.7870   18.5880 F   0  0  0  0  0  0  0  0  0  0  0  0
    3.7830    3.7100   17.8020 C   0  0  2  0  0  0  0  0  0  0  0  0
    3.4060    4.0740   16.8370 H   0  0  0  0  0  0  0  0  0  0  0  0
    3.5200    2.1960   17.8240 C   0  0  0  0  0  0  0  0  0  0  0  0
    2.5080    1.9790   18.1830 H   0  0  0  0  0  0  0  0  0  0  0  0
    3.6200    1.7490   16.8290 H   0  0  0  0  0  0  0  0  0  0  0  0
    4.2220    1.6870   18.4930 H   0  0  0  0  0  0  0  0  0  0  0  0
    5.2860    4.0410   17.9020 C   0  0  0  0  0  0  0  0  0  0  0  0
    5.8110    3.2640   18.4680 H   0  0  0  0  0  0  0  0  0  0  0  0
    5.4210    4.9720   18.4690 H   0  0  0  0  0  0  0  0  0  0  0  0
    5.9050    4.2430   16.5600 C   0  0  0  0  0  0  0  0  0  0  0  0
    5.7370    3.4690   15.5060 N   0  0  0  0  0  0  0  0  0  0  0  0
    6.4790    3.9860   14.4710 N   0  0  0  0  0  0  0  0  0  0  0  0
    7.0780    5.0660   14.9120 C   0  0  0  0  0  0  0  0  0  0  0  0
    6.7470    5.2680   16.2160 N   0  0  0  0  0  0  0  0  0  0  0  0
    7.7330    5.7080   14.3420 H   0  0  0  0  0  0  0  0  0  0  0  0
    7.2050    6.3470   17.0480 C   0  0  0  0  0  0  0  0  0  0  0  0
    7.3240    7.2380   16.4290 H   0  0  0  0  0  0  0  0  0  0  0  0
    8.1650    6.0810   17.4990 H   0  0  0  0  0  0  0  0  0  0  0  0
    6.4660    6.5190   17.8360 H   0  0  0  0  0  0  0  0  0  0  0  0
  1  2  1  0  0  0  0
  2  7  1  0  0  0  0
  2  3  2  0  0  0  0
  3  8  1  0  0  0  0
  4  3  1  0  0  0  0
  4  9  1  0  0  0  0
  5  4  2  0  0  0  0
  6  1  2  0  0  0  0
  6  5  1  0  0  0  0
 10  6  1  0  0  0  0
 11  5  1  0  0  0  0
 11 14  1  0  0  0  0
 12 15  1  0  0  0  0
 12 11  1  0  0  0  0
 13 12  2  0  0  0  0
 15 23  1  0  0  0  0
 16 17  1  0  0  0  0
 16 15  2  0  0  0  0
 17 19  2  0  0  0  0
 18 17  1  0  0  0  0
 19 23  1  0  0  0  0
 19 20  1  0  0  0  0
 20 27  1  0  0  0  0
 20 21  2  0  0  0  0
 21 25  1  0  0  0  0
 22 26  1  0  0  0  0
 22 21  1  0  0  0  0
 23 22  2  0  0  0  0
 24 16  1  0  0  0  0
 27 29  1  0  0  0  0
 27 28  1  0  0  0  0
 30 27  1  0  0  0  0
 31 32  1  6  0  0  0
 31 33  1  0  0  0  0
 31 37  1  0  0  0  0
 31  1  1  0  0  0  0
 33 34  1  0  0  0  0
 33 36  1  0  0  0  0
 35 33  1  0  0  0  0
 37 38  1  0  0  0  0
 37 39  1  0  0  0  0
 40 37  1  0  0  0  0
 41 40  2  0  0  0  0
 42 43  2  0  0  0  0
 42 41  1  0  0  0  0
 43 44  1  0  0  0  0
 44 40  1  0  0  0  0
 44 46  1  0  0  0  0
 45 43  1  0  0  0  0
 46 48  1  0  0  0  0
 46 49  1  0  0  0  0
 47 46  1  0  0  0  0
M  END
>  <MODEL>
30

>  <REMARK>
 VINA RESULT:    -7.743      5.430      9.346
 INTER + INTRA:         -11.155
 INTER:                 -10.503
 INTRA:                  -0.653
 UNBOUND:                -0.243
  Name = 
  8 active torsions:
  status: ('A' for Active; 'I' for Inactive)
    1  A    between atoms: C_1  and  C_2
    2  A    between atoms: C_2  and  C_3
    3  A    between atoms: C_2  and  C_10
    4  A    between atoms: C_3  and  C_4
    5  A    between atoms: N_8  and  C_9
    6  A    between atoms: C_14  and  N_15
    7  A    between atoms: C_16  and  C_18
    8  A    between atoms: C_23  and  C_24
                            x       y       z     vdW  Elec       q    Type
                         _______ _______ _______ _____ _____    ______ ____

>  <TORSDO>
F 8

$$$$
=
 OpenBabel07192307433D

 49 52  0  0  1  0  0  0  0  0999 V2000
    0.5270   11.9030   19.6760 C   0  0  0  0  0  0  0  0  0  0  0  0
   -0.6980   12.0160   19.0060 C   0  0  0  0  0  0  0  0  0  0  0  0
   -1.1640   10.9710   18.2100 C   0  0  0  0  0  0  0  0  0  0  0  0
   -0.4130    9.8020   18.0650 C   0  0  0  0  0  0  0  0  0  0  0  0
    0.8140    9.6670   18.7120 C   0  0  0  0  0  0  0  0  0  0  0  0
    1.2750   10.7220   19.5140 C   0  0  0  0  0  0  0  0  0  0  0  0
   -1.3030   12.9140   19.0940 H   0  0  0  0  0  0  0  0  0  0  0  0
   -2.1180   11.0620   17.6960 H   0  0  0  0  0  0  0  0  0  0  0  0
   -0.8190    9.0140   17.4390 H   0  0  0  0  0  0  0  0  0  0  0  0
    2.2320   10.6360   20.0240 H   0  0  0  0  0  0  0  0  0  0  0  0
    1.6370    8.5240   18.6200 N   0  0  0  0  0  0  0  0  0  0  0  0
    1.9850    7.6570   19.6370 C   0  0  0  0  0  0  0  0  0  0  0  0
    1.6010    7.6980   20.8000 O   0  0  0  0  0  0  0  0  0  0  0  0
    1.9680    8.3060   17.6900 H   0  0  0  0  0  0  0  0  0  0  0  0
    2.8960    6.5680   19.2040 C   0  0  0  0  0  0  0  0  0  0  0  0
    3.0980    5.3350   19.7270 C   0  0  0  0  0  0  0  0  0  0  0  0
    4.0730    4.5970   18.9180 C   0  0  0  0  0  0  0  0  0  0  0  0
    4.5760    3.0220   19.2770 Cl  0  0  0  0  0  0  0  0  0  0  0  0
    4.4560    5.3680   17.8980 C   0  0  0  0  0  0  0  0  0  0  0  0
    5.2910    5.4240   16.7360 C   0  0  0  0  0  0  0  0  0  0  0  0
    5.0720    6.6540   16.2120 C   0  0  0  0  0  0  0  0  0  0  0  0
    4.1010    7.3970   17.0230 C   0  0  0  0  0  0  0  0  0  0  0  0
    3.7360    6.6120   18.0410 C   0  0  0  0  0  0  0  0  0  0  0  0
    2.6130    4.9010   20.5870 H   0  0  0  0  0  0  0  0  0  0  0  0
    5.5320    7.0580   15.3210 H   0  0  0  0  0  0  0  0  0  0  0  0
    3.7520    8.3980   16.8170 H   0  0  0  0  0  0  0  0  0  0  0  0
    6.1760    4.3330   16.2720 C   0  0  0  0  0  0  0  0  0  0  0  0
    6.7780    4.6290   15.0920 F   0  0  0  0  0  0  0  0  0  0  0  0
    5.5000    3.1690   16.0940 F   0  0  0  0  0  0  0  0  0  0  0  0
    7.1710    4.0710   17.1590 F   0  0  0  0  0  0  0  0  0  0  0  0
    1.0810   13.0270   20.5410 C   0  0  2  0  0  0  0  0  0  0  0  0
    1.8830   12.6100   21.1640 H   0  0  0  0  0  0  0  0  0  0  0  0
    0.0180   13.5670   21.5100 C   0  0  0  0  0  0  0  0  0  0  0  0
    0.0330   14.6610   21.5390 H   0  0  0  0  0  0  0  0  0  0  0  0
   -0.9930   13.2580   21.2230 H   0  0  0  0  0  0  0  0  0  0  0  0
    0.2010   13.2090   22.5300 H   0  0  0  0  0  0  0  0  0  0  0  0
    1.6750   14.1380   19.6510 C   0  0  0  0  0  0  0  0  0  0  0  0
    1.0460   15.0340   19.6880 H   0  0  0  0  0  0  0  0  0  0  0  0
    1.6730   13.8110   18.6030 H   0  0  0  0  0  0  0  0  0  0  0  0
    3.0860   14.4540   20.0170 C   0  0  0  0  0  0  0  0  0  0  0  0
    3.6300   14.3030   21.2080 N   0  0  0  0  0  0  0  0  0  0  0  0
    4.9390   14.7110   21.1380 N   0  0  0  0  0  0  0  0  0  0  0  0
    5.1710   15.0950   19.9060 C   0  0  0  0  0  0  0  0  0  0  0  0
    4.0390   14.9510   19.1660 N   0  0  0  0  0  0  0  0  0  0  0  0
    6.1090   15.4700   19.5220 H   0  0  0  0  0  0  0  0  0  0  0  0
    3.8930   15.2670   17.7710 C   0  0  0  0  0  0  0  0  0  0  0  0
    2.8490   15.1230   17.4880 H   0  0  0  0  0  0  0  0  0  0  0  0
    4.5310   14.6070   17.1760 H   0  0  0  0  0  0  0  0  0  0  0  0
    4.1960   16.3060   17.6140 H   0  0  0  0  0  0  0  0  0  0  0  0
  1 31  1  0  0  0  0
  2  7  1  0  0  0  0
  2  1  2  0  0  0  0
  3  2  1  0  0  0  0
  4  3  2  0  0  0  0
  4  5  1  0  0  0  0
  5  6  2  0  0  0  0
  6  1  1  0  0  0  0
  6 10  1  0  0  0  0
  8  3  1  0  0  0  0
  9  4  1  0  0  0  0
 11  5  1  0  0  0  0
 11 12  1  0  0  0  0
 12 13  2  0  0  0  0
 14 11  1  0  0  0  0
 15 12  1  0  0  0  0
 15 16  1  0  0  0  0
 16 24  1  0  0  0  0
 17 18  1  0  0  0  0
 17 16  2  0  0  0  0
 19 23  1  0  0  0  0
 19 17  1  0  0  0  0
 20 19  2  0  0  0  0
 21 20  1  0  0  0  0
 21 22  2  0  0  0  0
 22 23  1  0  0  0  0
 23 15  2  0  0  0  0
 25 21  1  0  0  0  0
 26 22  1  0  0  0  0
 27 20  1  0  0  0  0
 27 30  1  0  0  0  0
 28 27  1  0  0  0  0
 29 27  1  0  0  0  0
 31 32  1  1  0  0  0
 31 33  1  0  0  0  0
 33 34  1  0  0  0  0
 33 36  1  0  0  0  0
 35 33  1  0  0  0  0
 37 38  1  0  0  0  0
 37 40  1  0  0  0  0
 37 31  1  0  0  0  0
 39 37  1  0  0  0  0
 40 41  2  0  0  0  0
 42 41  1  0  0  0  0
 43 42  2  0  0  0  0
 44 43  1  0  0  0  0
 44 40  1  0  0  0  0
 45 43  1  0  0  0  0
 46 44  1  0  0  0  0
 47 46  1  0  0  0  0
 48 46  1  0  0  0  0
 49 46  1  0  0  0  0
M  END
>  <MODEL>
31

>  <REMARK>
 VINA RESULT:    -7.684      3.078      4.653
 INTER + INTRA:         -11.072
 INTER:                 -10.132
 INTRA:                  -0.940
 UNBOUND:                -0.243
  Name = 
  8 active torsions:
  status: ('A' for Active; 'I' for Inactive)
    1  A    between atoms: C_1  and  C_2
    2  A    between atoms: C_2  and  C_3
    3  A    between atoms: C_2  and  C_10
    4  A    between atoms: C_3  and  C_4
    5  A    between atoms: N_8  and  C_9
    6  A    between atoms: C_14  and  N_15
    7  A    between atoms: C_16  and  C_18
    8  A    between atoms: C_23  and  C_24
                            x       y       z     vdW  Elec       q    Type
                         _______ _______ _______ _____ _____    ______ ____

>  <TORSDO>
F 8

$$$$
=
 OpenBabel07192307433D

 49 52  0  0  1  0  0  0  0  0999 V2000
    0.0530   12.4710   19.5780 C   0  0  0  0  0  0  0  0  0  0  0  0
   -0.9250   12.6580   18.5950 C   0  0  0  0  0  0  0  0  0  0  0  0
   -1.3880   11.5770   17.8470 C   0  0  0  0  0  0  0  0  0  0  0  0
   -0.8780   10.2950   18.0650 C   0  0  0  0  0  0  0  0  0  0  0  0
    0.1050   10.0820   19.0310 C   0  0  0  0  0  0  0  0  0  0  0  0
    0.5630   11.1750   19.7810 C   0  0  0  0  0  0  0  0  0  0  0  0
   -1.3390   13.6440   18.3970 H   0  0  0  0  0  0  0  0  0  0  0  0
   -2.1520   11.7270   17.0880 H   0  0  0  0  0  0  0  0  0  0  0  0
   -1.2730    9.4830   17.4620 H   0  0  0  0  0  0  0  0  0  0  0  0
    1.3310   11.0290   20.5380 H   0  0  0  0  0  0  0  0  0  0  0  0
    0.6760    8.8230   19.3160 N   0  0  0  0  0  0  0  0  0  0  0  0
    1.8700    8.3180   18.8420 C   0  0  0  0  0  0  0  0  0  0  0  0
    2.6760    8.8940   18.1210 O   0  0  0  0  0  0  0  0  0  0  0  0
    0.1610    8.2560   19.9760 H   0  0  0  0  0  0  0  0  0  0  0  0
    2.1630    6.9420   19.3150 C   0  0  0  0  0  0  0  0  0  0  0  0
    1.8590    6.3350   20.4870 C   0  0  0  0  0  0  0  0  0  0  0  0
    2.3230    4.9430   20.4710 C   0  0  0  0  0  0  0  0  0  0  0  0
    2.1210    3.8820   21.7710 Cl  0  0  0  0  0  0  0  0  0  0  0  0
    2.8960    4.6960   19.2910 C   0  0  0  0  0  0  0  0  0  0  0  0
    3.5460    3.6910   18.5060 C   0  0  0  0  0  0  0  0  0  0  0  0
    3.8330    4.3020   17.3310 C   0  0  0  0  0  0  0  0  0  0  0  0
    3.3750    5.6950   17.3470 C   0  0  0  0  0  0  0  0  0  0  0  0
    2.8120    5.9250   18.5360 C   0  0  0  0  0  0  0  0  0  0  0  0
    1.3250    6.7570   21.3240 H   0  0  0  0  0  0  0  0  0  0  0  0
    4.3280    3.8500   16.4820 H   0  0  0  0  0  0  0  0  0  0  0  0
    3.4800    6.3960   16.5320 H   0  0  0  0  0  0  0  0  0  0  0  0
    3.8110    2.3040   18.9500 C   0  0  0  0  0  0  0  0  0  0  0  0
    4.1110    1.4830   17.9110 F   0  0  0  0  0  0  0  0  0  0  0  0
    2.7450    1.7620   19.5920 F   0  0  0  0  0  0  0  0  0  0  0  0
    4.8580    2.2370   19.8130 F   0  0  0  0  0  0  0  0  0  0  0  0
    0.5990   13.6280   20.4040 C   0  0  2  0  0  0  0  0  0  0  0  0
    0.0270   14.5290   20.1430 H   0  0  0  0  0  0  0  0  0  0  0  0
    2.0630   13.9300   20.0510 C   0  0  0  0  0  0  0  0  0  0  0  0
    2.6540   14.1170   20.9540 H   0  0  0  0  0  0  0  0  0  0  0  0
    2.5350   13.1000   19.5150 H   0  0  0  0  0  0  0  0  0  0  0  0
    2.1370   14.8230   19.4200 H   0  0  0  0  0  0  0  0  0  0  0  0
    0.4090   13.3430   21.9080 C   0  0  0  0  0  0  0  0  0  0  0  0
    0.9170   14.1070   22.5080 H   0  0  0  0  0  0  0  0  0  0  0  0
    0.8890   12.3890   22.1660 H   0  0  0  0  0  0  0  0  0  0  0  0
   -1.0310   13.2320   22.2800 C   0  0  0  0  0  0  0  0  0  0  0  0
   -1.9330   14.1880   22.1760 N   0  0  0  0  0  0  0  0  0  0  0  0
   -3.1340   13.6960   22.6260 N   0  0  0  0  0  0  0  0  0  0  0  0
   -2.9430   12.4500   22.9890 C   0  0  0  0  0  0  0  0  0  0  0  0
   -1.6400   12.1150   22.7890 N   0  0  0  0  0  0  0  0  0  0  0  0
   -3.6920   11.7810   23.3860 H   0  0  0  0  0  0  0  0  0  0  0  0
   -1.0420   10.8380   23.0670 C   0  0  0  0  0  0  0  0  0  0  0  0
   -0.1100   10.9990   23.6120 H   0  0  0  0  0  0  0  0  0  0  0  0
   -0.8350   10.3170   22.1280 H   0  0  0  0  0  0  0  0  0  0  0  0
   -1.7410   10.2470   23.6660 H   0  0  0  0  0  0  0  0  0  0  0  0
  1  6  1  0  0  0  0
  1 31  1  0  0  0  0
  2  1  2  0  0  0  0
  3  4  2  0  0  0  0
  3  2  1  0  0  0  0
  4  5  1  0  0  0  0
  5 11  1  0  0  0  0
  5  6  2  0  0  0  0
  6 10  1  0  0  0  0
  7  2  1  0  0  0  0
  8  3  1  0  0  0  0
  9  4  1  0  0  0  0
 11 14  1  0  0  0  0
 12 15  1  0  0  0  0
 12 11  1  0  0  0  0
 13 12  2  0  0  0  0
 15 16  1  0  0  0  0
 16 24  1  0  0  0  0
 17 16  2  0  0  0  0
 17 18  1  0  0  0  0
 19 17  1  0  0  0  0
 20 27  1  0  0  0  0
 20 19  2  0  0  0  0
 21 22  2  0  0  0  0
 21 20  1  0  0  0  0
 22 23  1  0  0  0  0
 23 19  1  0  0  0  0
 23 15  2  0  0  0  0
 25 21  1  0  0  0  0
 26 22  1  0  0  0  0
 27 29  1  0  0  0  0
 27 30  1  0  0  0  0
 28 27  1  0  0  0  0
 31 32  1  6  0  0  0
 31 37  1  0  0  0  0
 33 31  1  0  0  0  0
 33 34  1  0  0  0  0
 35 33  1  0  0  0  0
 36 33  1  0  0  0  0
 37 39  1  0  0  0  0
 37 40  1  0  0  0  0
 37 38  1  0  0  0  0
 40 44  1  0  0  0  0
 41 40  2  0  0  0  0
 41 42  1  0  0  0  0
 42 43  2  0  0  0  0
 43 45  1  0  0  0  0
 44 43  1  0  0  0  0
 44 46  1  0  0  0  0
 46 47  1  0  0  0  0
 46 49  1  0  0  0  0
 48 46  1  0  0  0  0
M  END
>  <MODEL>
32

>  <REMARK>
 VINA RESULT:    -7.666      3.115      4.506
 INTER + INTRA:         -11.046
 INTER:                  -9.777
 INTRA:                  -1.269
 UNBOUND:                -0.243
  Name = 
  8 active torsions:
  status: ('A' for Active; 'I' for Inactive)
    1  A    between atoms: C_1  and  C_2
    2  A    between atoms: C_2  and  C_3
    3  A    between atoms: C_2  and  C_10
    4  A    between atoms: C_3  and  C_4
    5  A    between atoms: N_8  and  C_9
    6  A    between atoms: C_14  and  N_15
    7  A    between atoms: C_16  and  C_18
    8  A    between atoms: C_23  and  C_24
                            x       y       z     vdW  Elec       q    Type
                         _______ _______ _______ _____ _____    ______ ____

>  <TORSDO>
F 8

$$$$
=
 OpenBabel07192307433D

 49 52  0  0  1  0  0  0  0  0999 V2000
   -0.4040   12.5340   19.6090 C   0  0  0  0  0  0  0  0  0  0  0  0
   -1.5810   12.6250   18.8570 C   0  0  0  0  0  0  0  0  0  0  0  0
   -2.0450   11.5230   18.1390 C   0  0  0  0  0  0  0  0  0  0  0  0
   -1.3380   10.3180   18.1560 C   0  0  0  0  0  0  0  0  0  0  0  0
   -0.1570   10.2040   18.8890 C   0  0  0  0  0  0  0  0  0  0  0  0
    0.3010   11.3160   19.6100 C   0  0  0  0  0  0  0  0  0  0  0  0
   -2.1520   13.5490   18.8190 H   0  0  0  0  0  0  0  0  0  0  0  0
   -2.9630   11.5970   17.5610 H   0  0  0  0  0  0  0  0  0  0  0  0
   -1.7410    9.4870   17.5860 H   0  0  0  0  0  0  0  0  0  0  0  0
    1.2220   11.2460   20.1850 H   0  0  0  0  0  0  0  0  0  0  0  0
    0.6200    9.0280   18.9600 N   0  0  0  0  0  0  0  0  0  0  0  0
    1.2570    8.5100   20.0700 C   0  0  0  0  0  0  0  0  0  0  0  0
    1.2240    8.9570   21.2100 O   0  0  0  0  0  0  0  0  0  0  0  0
    0.6720    8.4940   18.1030 H   0  0  0  0  0  0  0  0  0  0  0  0
    2.0200    7.2670   19.7920 C   0  0  0  0  0  0  0  0  0  0  0  0
    2.0090    6.0720   20.4280 C   0  0  0  0  0  0  0  0  0  0  0  0
    2.9070    5.1300   19.7510 C   0  0  0  0  0  0  0  0  0  0  0  0
    3.1510    3.5410   20.2730 Cl  0  0  0  0  0  0  0  0  0  0  0  0
    3.4530    5.7420   18.6980 C   0  0  0  0  0  0  0  0  0  0  0  0
    4.3490    5.5710   17.5940 C   0  0  0  0  0  0  0  0  0  0  0  0
    4.3420    6.7650   16.9560 C   0  0  0  0  0  0  0  0  0  0  0  0
    3.4500    7.7100   17.6350 C   0  0  0  0  0  0  0  0  0  0  0  0
    2.9180    7.0840   18.6880 C   0  0  0  0  0  0  0  0  0  0  0  0
    1.4190    5.7920   21.2880 H   0  0  0  0  0  0  0  0  0  0  0  0
    4.9050    7.0150   16.0660 H   0  0  0  0  0  0  0  0  0  0  0  0
    3.2640    8.7280   17.3230 H   0  0  0  0  0  0  0  0  0  0  0  0
    5.0870    4.3260   17.2830 C   0  0  0  0  0  0  0  0  0  0  0  0
    5.7860    4.4230   16.1230 F   0  0  0  0  0  0  0  0  0  0  0  0
    4.2580    3.2580   17.1620 F   0  0  0  0  0  0  0  0  0  0  0  0
    5.9860    4.0110   18.2520 F   0  0  0  0  0  0  0  0  0  0  0  0
    0.1470   13.7180   20.3920 C   0  0  2  0  0  0  0  0  0  0  0  0
   -0.5280   14.5700   20.2350 H   0  0  0  0  0  0  0  0  0  0  0  0
    1.5210   14.1540   19.8620 C   0  0  0  0  0  0  0  0  0  0  0  0
    1.4640   14.4310   18.8040 H   0  0  0  0  0  0  0  0  0  0  0  0
    1.9170   15.0160   20.4080 H   0  0  0  0  0  0  0  0  0  0  0  0
    2.2490   13.3390   19.9480 H   0  0  0  0  0  0  0  0  0  0  0  0
    0.1820   13.3890   21.8990 C   0  0  0  0  0  0  0  0  0  0  0  0
    0.7300   14.1640   22.4460 H   0  0  0  0  0  0  0  0  0  0  0  0
    0.7380   12.4550   22.0590 H   0  0  0  0  0  0  0  0  0  0  0  0
   -1.1860   13.1950   22.4620 C   0  0  0  0  0  0  0  0  0  0  0  0
   -2.1190   14.1200   22.5660 N   0  0  0  0  0  0  0  0  0  0  0  0
   -3.2280   13.5500   23.1400 N   0  0  0  0  0  0  0  0  0  0  0  0
   -2.9530   12.2880   23.3690 C   0  0  0  0  0  0  0  0  0  0  0  0
   -1.6840   12.0190   22.9590 N   0  0  0  0  0  0  0  0  0  0  0  0
   -3.6190   11.5620   23.8120 H   0  0  0  0  0  0  0  0  0  0  0  0
   -1.0190   10.7480   23.0440 C   0  0  0  0  0  0  0  0  0  0  0  0
    0.0570   10.9100   22.9530 H   0  0  0  0  0  0  0  0  0  0  0  0
   -1.3630   10.0980   22.2340 H   0  0  0  0  0  0  0  0  0  0  0  0
   -1.2600   10.2900   24.0070 H   0  0  0  0  0  0  0  0  0  0  0  0
  1  6  1  0  0  0  0
  1 31  1  0  0  0  0
  2  1  2  0  0  0  0
  3  4  2  0  0  0  0
  3  2  1  0  0  0  0
  4  5  1  0  0  0  0
  5 11  1  0  0  0  0
  5  6  2  0  0  0  0
  6 10  1  0  0  0  0
  7  2  1  0  0  0  0
  8  3  1  0  0  0  0
  9  4  1  0  0  0  0
 11 12  1  0  0  0  0
 12 13  2  0  0  0  0
 14 11  1  0  0  0  0
 15 12  1  0  0  0  0
 15 16  1  0  0  0  0
 16 24  1  0  0  0  0
 17 18  1  0  0  0  0
 17 16  2  0  0  0  0
 19 17  1  0  0  0  0
 20 19  2  0  0  0  0
 21 20  1  0  0  0  0
 21 22  2  0  0  0  0
 22 23  1  0  0  0  0
 23 19  1  0  0  0  0
 23 15  2  0  0  0  0
 25 21  1  0  0  0  0
 26 22  1  0  0  0  0
 27 20  1  0  0  0  0
 27 30  1  0  0  0  0
 28 27  1  0  0  0  0
 29 27  1  0  0  0  0
 31 32  1  6  0  0  0
 31 37  1  0  0  0  0
 33 36  1  0  0  0  0
 33 31  1  0  0  0  0
 33 35  1  0  0  0  0
 34 33  1  0  0  0  0
 37 39  1  0  0  0  0
 37 38  1  0  0  0  0
 37 40  1  0  0  0  0
 40 41  2  0  0  0  0
 40 44  1  0  0  0  0
 41 42  1  0  0  0  0
 42 43  2  0  0  0  0
 43 45  1  0  0  0  0
 44 46  1  0  0  0  0
 44 43  1  0  0  0  0
 46 49  1  0  0  0  0
 47 46  1  0  0  0  0
 48 46  1  0  0  0  0
M  END
>  <MODEL>
33

>  <REMARK>
 VINA RESULT:    -7.626      2.756      4.099
 INTER + INTRA:         -10.990
 INTER:                  -9.943
 INTRA:                  -1.047
 UNBOUND:                -0.243
  Name = 
  8 active torsions:
  status: ('A' for Active; 'I' for Inactive)
    1  A    between atoms: C_1  and  C_2
    2  A    between atoms: C_2  and  C_3
    3  A    between atoms: C_2  and  C_10
    4  A    between atoms: C_3  and  C_4
    5  A    between atoms: N_8  and  C_9
    6  A    between atoms: C_14  and  N_15
    7  A    between atoms: C_16  and  C_18
    8  A    between atoms: C_23  and  C_24
                            x       y       z     vdW  Elec       q    Type
                         _______ _______ _______ _____ _____    ______ ____

>  <TORSDO>
F 8

$$$$
