=
 OpenBabel07192307433D

 48 52  0  0  1  0  0  0  0  0999 V2000
   -0.4470   10.4510   20.4160 C   0  0  0  0  0  0  0  0  0  0  0  0
    0.4010    9.5540   19.7520 C   0  0  0  0  0  0  0  0  0  0  0  0
    1.2750    8.7010   20.4390 C   0  0  0  0  0  0  0  0  0  0  0  0
    1.3190    8.7400   21.8320 C   0  0  0  0  0  0  0  0  0  0  0  0
    0.4530    9.5720   22.5210 C   0  0  0  0  0  0  0  0  0  0  0  0
   -0.4230   10.4120   21.8170 C   0  0  0  0  0  0  0  0  0  0  0  0
    0.3980    9.5790   18.6640 H   0  0  0  0  0  0  0  0  0  0  0  0
    2.0070    8.1090   22.3980 H   0  0  0  0  0  0  0  0  0  0  0  0
    0.4770    9.5900   23.6230 H   0  0  0  0  0  0  0  0  0  0  0  0
   -1.0660   11.0750   22.4100 H   0  0  0  0  0  0  0  0  0  0  0  0
   -2.8010   11.4040   19.6420 C   0  0  2  0  0  0  0  0  0  0  0  0
   -2.0380   12.5500   20.2770 C   0  0  0  0  0  0  0  0  0  0  0  0
   -1.2800   11.4250   19.6010 C   0  0  1  0  0  0  0  0  0  0  0  0
   -3.2800   10.7050   20.3410 H   0  0  0  0  0  0  0  0  0  0  0  0
   -2.0830   12.6230   21.3490 H   0  0  0  0  0  0  0  0  0  0  0  0
   -1.9870   13.5270   19.8200 H   0  0  0  0  0  0  0  0  0  0  0  0
   -0.8430   11.6770   18.6310 H   0  0  0  0  0  0  0  0  0  0  0  0
   -3.3190   10.9050   17.0780 N   0  0  0  0  0  0  0  0  0  0  0  0
   -4.3360   11.2720   16.2550 C   0  0  0  0  0  0  0  0  0  0  0  0
   -5.1470   12.0780   16.8930 N   0  0  0  0  0  0  0  0  0  0  0  0
   -4.6580   12.2310   18.1640 N   0  0  0  0  0  0  0  0  0  0  0  0
   -3.5620   11.5060   18.2790 C   0  0  0  0  0  0  0  0  0  0  0  0
   -4.4410   10.9370   15.2380 H   0  0  0  0  0  0  0  0  0  0  0  0
   -2.2520   10.0220   16.6910 C   0  0  0  0  0  0  0  0  0  0  0  0
   -1.3930   10.6120   16.3730 H   0  0  0  0  0  0  0  0  0  0  0  0
   -1.9650    9.4070   17.5470 H   0  0  0  0  0  0  0  0  0  0  0  0
   -2.6000    9.3620   15.8980 H   0  0  0  0  0  0  0  0  0  0  0  0
    2.1540    7.8230   19.7920 N   0  0  0  0  0  0  0  0  0  0  0  0
    2.1960    6.4510   19.9390 C   0  0  0  0  0  0  0  0  0  0  0  0
    1.5170    5.7980   20.7140 O   0  0  0  0  0  0  0  0  0  0  0  0
    2.8640    8.1920   19.1970 H   0  0  0  0  0  0  0  0  0  0  0  0
    3.2030    5.8290   19.1090 C   0  0  0  0  0  0  0  0  0  0  0  0
    4.4980    5.8640   19.3120 N   0  0  0  0  0  0  0  0  0  0  0  0
    5.0770    5.2310   18.2350 C   0  0  0  0  0  0  0  0  0  0  0  0
    6.4370    5.0380   17.9310 C   0  0  0  0  0  0  0  0  0  0  0  0
    6.7320    4.3560   16.7240 C   0  0  0  0  0  0  0  0  0  0  0  0
    5.7220    3.8470   15.8900 C   0  0  0  0  0  0  0  0  0  0  0  0
    4.3760    4.0250   16.2080 C   0  0  0  0  0  0  0  0  0  0  0  0
    4.0960    4.7420   17.3770 C   0  0  0  0  0  0  0  0  0  0  0  0
    2.9160    5.1680   17.9340 N   0  0  0  0  0  0  0  0  0  0  0  0
    7.7750    4.2120   16.4290 H   0  0  0  0  0  0  0  0  0  0  0  0
    5.9940    3.3280   14.9660 H   0  0  0  0  0  0  0  0  0  0  0  0
    3.5880    3.6510   15.5500 H   0  0  0  0  0  0  0  0  0  0  0  0
    1.9870    5.0270   17.5630 H   0  0  0  0  0  0  0  0  0  0  0  0
    7.5370    5.5910   18.7880 C   0  0  0  0  0  0  0  0  0  0  0  0
    8.6560    4.8150   18.7780 F   0  0  0  0  0  0  0  0  0  0  0  0
    7.1830    5.6660   20.0930 F   0  0  0  0  0  0  0  0  0  0  0  0
    7.9860    7.2450   18.3020 Cl  0  0  0  0  0  0  0  0  0  0  0  0
  1  6  1  0  0  0  0
  2  1  2  0  0  0  0
  2  3  1  0  0  0  0
  3  4  2  0  0  0  0
  4  8  1  0  0  0  0
  4  5  1  0  0  0  0
  5  9  1  0  0  0  0
  6 10  1  0  0  0  0
  6  5  2  0  0  0  0
  7  2  1  0  0  0  0
 11 12  1  0  0  0  0
 11 14  1  1  0  0  0
 12 15  1  0  0  0  0
 13 17  1  6  0  0  0
 13 11  1  0  0  0  0
 13 12  1  0  0  0  0
 13  1  1  0  0  0  0
 16 12  1  0  0  0  0
 18 22  1  0  0  0  0
 19 20  2  0  0  0  0
 19 18  1  0  0  0  0
 20 21  1  0  0  0  0
 21 22  2  0  0  0  0
 22 11  1  0  0  0  0
 23 19  1  0  0  0  0
 24 18  1  0  0  0  0
 24 26  1  0  0  0  0
 25 24  1  0  0  0  0
 27 24  1  0  0  0  0
 28 29  1  0  0  0  0
 28  3  1  0  0  0  0
 29 30  2  0  0  0  0
 31 28  1  0  0  0  0
 32 33  2  0  0  0  0
 32 29  1  0  0  0  0
 34 33  1  0  0  0  0
 35 34  1  0  0  0  0
 35 45  1  0  0  0  0
 36 35  2  0  0  0  0
 37 38  2  0  0  0  0
 37 36  1  0  0  0  0
 38 39  1  0  0  0  0
 39 40  1  0  0  0  0
 39 34  2  0  0  0  0
 40 32  1  0  0  0  0
 41 36  1  0  0  0  0
 42 37  1  0  0  0  0
 43 38  1  0  0  0  0
 44 40  1  0  0  0  0
 45 47  1  0  0  0  0
 46 45  1  0  0  0  0
 48 45  1  0  0  0  0
M  END
>  <MODEL>
1

>  <REMARK>
 VINA RESULT:    -8.859      0.000      0.000
 INTER + INTRA:         -11.526
 INTER:                 -11.313
 INTRA:                  -0.212
 UNBOUND:                 0.182
  Name = 
  6 active torsions:
  status: ('A' for Active; 'I' for Inactive)
    1  A    between atoms: C_1  and  N_2
    2  A    between atoms: C_6  and  C_7
    3  A    between atoms: C_9  and  C_10
    4  A    between atoms: C_12  and  N_16
    5  A    between atoms: C_17  and  C_19
    6  A    between atoms: C_22  and  C_28
                            x       y       z     vdW  Elec       q    Type
                         _______ _______ _______ _____ _____    ______ ____

>  <TORSDO>
F 6

$$$$
=
 OpenBabel07192307433D

 48 52  0  0  1  0  0  0  0  0999 V2000
    4.4460    3.7230   17.1790 C   0  0  0  0  0  0  0  0  0  0  0  0
    3.9220    4.9760   17.5240 C   0  0  0  0  0  0  0  0  0  0  0  0
    2.7790    5.1160   18.3230 C   0  0  0  0  0  0  0  0  0  0  0  0
    2.1260    3.9770   18.7930 C   0  0  0  0  0  0  0  0  0  0  0  0
    2.6520    2.7250   18.5190 C   0  0  0  0  0  0  0  0  0  0  0  0
    3.8010    2.6040   17.7260 C   0  0  0  0  0  0  0  0  0  0  0  0
    4.4080    5.8520   17.1000 H   0  0  0  0  0  0  0  0  0  0  0  0
    1.2180    4.0480   19.3950 H   0  0  0  0  0  0  0  0  0  0  0  0
    2.1430    1.8260   18.9050 H   0  0  0  0  0  0  0  0  0  0  0  0
    4.1580    1.5890   17.5120 H   0  0  0  0  0  0  0  0  0  0  0  0
    5.8280    4.6990   15.1330 C   0  0  2  0  0  0  0  0  0  0  0  0
    6.7690    4.6260   16.3190 C   0  0  0  0  0  0  0  0  0  0  0  0
    5.6160    3.6490   16.2130 C   0  0  1  0  0  0  0  0  0  0  0  0
    5.1430    5.5590   15.1200 H   0  0  0  0  0  0  0  0  0  0  0  0
    6.7370    5.4490   17.0100 H   0  0  0  0  0  0  0  0  0  0  0  0
    7.7680    4.2260   16.2320 H   0  0  0  0  0  0  0  0  0  0  0  0
    5.8950    2.6300   15.9340 H   0  0  0  0  0  0  0  0  0  0  0  0
    7.2080    4.5460   12.8610 N   0  0  0  0  0  0  0  0  0  0  0  0
    7.1020    3.7440   11.7700 C   0  0  0  0  0  0  0  0  0  0  0  0
    6.0580    2.9630   11.9000 N   0  0  0  0  0  0  0  0  0  0  0  0
    5.4780    3.2510   13.1080 N   0  0  0  0  0  0  0  0  0  0  0  0
    6.1860    4.1970   13.6950 C   0  0  0  0  0  0  0  0  0  0  0  0
    7.7830    3.7610   10.9380 H   0  0  0  0  0  0  0  0  0  0  0  0
    8.2480    5.5240   13.0400 C   0  0  0  0  0  0  0  0  0  0  0  0
    9.0970    5.0580   13.5400 H   0  0  0  0  0  0  0  0  0  0  0  0
    8.5670    5.8930   12.0630 H   0  0  0  0  0  0  0  0  0  0  0  0
    7.8580    6.3640   13.6120 H   0  0  0  0  0  0  0  0  0  0  0  0
    2.2210    6.3580   18.6510 N   0  0  0  0  0  0  0  0  0  0  0  0
    2.6010    7.5860   18.1450 C   0  0  0  0  0  0  0  0  0  0  0  0
    3.5340    7.7830   17.3850 O   0  0  0  0  0  0  0  0  0  0  0  0
    1.5120    6.4060   19.3490 H   0  0  0  0  0  0  0  0  0  0  0  0
    1.8080    8.6760   18.6650 C   0  0  0  0  0  0  0  0  0  0  0  0
    1.3430    8.7760   19.8870 N   0  0  0  0  0  0  0  0  0  0  0  0
    0.5680    9.9140   19.9150 C   0  0  0  0  0  0  0  0  0  0  0  0
   -0.1980   10.4530   20.9650 C   0  0  0  0  0  0  0  0  0  0  0  0
   -0.9150   11.6440   20.6870 C   0  0  0  0  0  0  0  0  0  0  0  0
   -0.8300   12.2910   19.4440 C   0  0  0  0  0  0  0  0  0  0  0  0
   -0.0530   11.7610   18.4140 C   0  0  0  0  0  0  0  0  0  0  0  0
    0.6120   10.5600   18.6830 C   0  0  0  0  0  0  0  0  0  0  0  0
    1.3740    9.7340   17.8950 N   0  0  0  0  0  0  0  0  0  0  0  0
   -1.5510   12.0810   21.4620 H   0  0  0  0  0  0  0  0  0  0  0  0
   -1.4020   13.2080   19.2700 H   0  0  0  0  0  0  0  0  0  0  0  0
   -0.0030   12.2500   17.4380 H   0  0  0  0  0  0  0  0  0  0  0  0
    1.5940    9.8650   16.9180 H   0  0  0  0  0  0  0  0  0  0  0  0
   -0.3280    9.7720   22.2960 C   0  0  0  0  0  0  0  0  0  0  0  0
    0.8700    9.5940   22.9170 F   0  0  0  0  0  0  0  0  0  0  0  0
   -0.8470    8.5260   22.1870 F   0  0  0  0  0  0  0  0  0  0  0  0
   -1.4130   10.6650   23.3920 Cl  0  0  0  0  0  0  0  0  0  0  0  0
  1  2  2  0  0  0  0
  1  6  1  0  0  0  0
  2  3  1  0  0  0  0
  3 28  1  0  0  0  0
  3  4  2  0  0  0  0
  4  8  1  0  0  0  0
  5  4  1  0  0  0  0
  5  9  1  0  0  0  0
  6  5  2  0  0  0  0
  7  2  1  0  0  0  0
 10  6  1  0  0  0  0
 11 14  1  1  0  0  0
 11 13  1  0  0  0  0
 11 12  1  0  0  0  0
 12 15  1  0  0  0  0
 13 17  1  6  0  0  0
 13 12  1  0  0  0  0
 13  1  1  0  0  0  0
 16 12  1  0  0  0  0
 18 24  1  0  0  0  0
 18 22  1  0  0  0  0
 19 20  2  0  0  0  0
 19 18  1  0  0  0  0
 20 21  1  0  0  0  0
 21 22  2  0  0  0  0
 22 11  1  0  0  0  0
 23 19  1  0  0  0  0
 24 25  1  0  0  0  0
 24 27  1  0  0  0  0
 26 24  1  0  0  0  0
 28 31  1  0  0  0  0
 29 28  1  0  0  0  0
 29 32  1  0  0  0  0
 30 29  2  0  0  0  0
 32 33  2  0  0  0  0
 33 34  1  0  0  0  0
 34 35  1  0  0  0  0
 35 45  1  0  0  0  0
 36 35  2  0  0  0  0
 36 41  1  0  0  0  0
 37 36  1  0  0  0  0
 38 39  1  0  0  0  0
 38 37  2  0  0  0  0
 39 34  2  0  0  0  0
 40 32  1  0  0  0  0
 40 39  1  0  0  0  0
 42 37  1  0  0  0  0
 43 38  1  0  0  0  0
 44 40  1  0  0  0  0
 45 46  1  0  0  0  0
 45 48  1  0  0  0  0
 47 45  1  0  0  0  0
M  END
>  <MODEL>
2

>  <REMARK>
 VINA RESULT:    -8.607      4.072      9.621
 INTER + INTRA:         -11.193
 INTER:                 -11.385
 INTRA:                   0.192
 UNBOUND:                 0.182
  Name = 
  6 active torsions:
  status: ('A' for Active; 'I' for Inactive)
    1  A    between atoms: C_1  and  N_2
    2  A    between atoms: C_6  and  C_7
    3  A    between atoms: C_9  and  C_10
    4  A    between atoms: C_12  and  N_16
    5  A    between atoms: C_17  and  C_19
    6  A    between atoms: C_22  and  C_28
                            x       y       z     vdW  Elec       q    Type
                         _______ _______ _______ _____ _____    ______ ____

>  <TORSDO>
F 6

$$$$
=
 OpenBabel07192307433D

 48 52  0  0  1  0  0  0  0  0999 V2000
   -1.2660   11.8380   20.3880 C   0  0  0  0  0  0  0  0  0  0  0  0
   -0.3510   10.7860   20.2410 C   0  0  0  0  0  0  0  0  0  0  0  0
   -0.2300   10.0610   19.0470 C   0  0  0  0  0  0  0  0  0  0  0  0
   -1.0440   10.3820   17.9630 C   0  0  0  0  0  0  0  0  0  0  0  0
   -1.9160   11.4540   18.0560 C   0  0  0  0  0  0  0  0  0  0  0  0
   -2.0180   12.1740   19.2550 C   0  0  0  0  0  0  0  0  0  0  0  0
    0.2340   10.5090   21.1160 H   0  0  0  0  0  0  0  0  0  0  0  0
   -0.9950    9.8220   17.0270 H   0  0  0  0  0  0  0  0  0  0  0  0
   -2.5490   11.7170   17.1920 H   0  0  0  0  0  0  0  0  0  0  0  0
   -2.7480   12.9940   19.2860 H   0  0  0  0  0  0  0  0  0  0  0  0
   -2.6720   12.2970   22.5940 C   0  0  2  0  0  0  0  0  0  0  0  0
   -1.3550   11.6770   23.0190 C   0  0  0  0  0  0  0  0  0  0  0  0
   -1.4230   12.4980   21.7480 C   0  0  1  0  0  0  0  0  0  0  0  0
   -3.4300   11.5950   22.2200 H   0  0  0  0  0  0  0  0  0  0  0  0
   -1.2950   10.6040   22.9840 H   0  0  0  0  0  0  0  0  0  0  0  0
   -0.7730   12.0760   23.8360 H   0  0  0  0  0  0  0  0  0  0  0  0
   -0.9710   13.4910   21.8110 H   0  0  0  0  0  0  0  0  0  0  0  0
   -4.3280   14.3660   22.8540 N   0  0  0  0  0  0  0  0  0  0  0  0
   -4.5260   15.2670   23.8510 C   0  0  0  0  0  0  0  0  0  0  0  0
   -3.6580   15.0590   24.8100 N   0  0  0  0  0  0  0  0  0  0  0  0
   -2.8850   13.9900   24.4380 N   0  0  0  0  0  0  0  0  0  0  0  0
   -3.3030   13.5620   23.2630 C   0  0  0  0  0  0  0  0  0  0  0  0
   -5.2880   16.0260   23.8360 H   0  0  0  0  0  0  0  0  0  0  0  0
   -5.1120   14.3140   21.6500 C   0  0  0  0  0  0  0  0  0  0  0  0
   -5.4920   13.3030   21.5110 H   0  0  0  0  0  0  0  0  0  0  0  0
   -5.9550   15.0040   21.7400 H   0  0  0  0  0  0  0  0  0  0  0  0
   -4.5000   14.6310   20.8070 H   0  0  0  0  0  0  0  0  0  0  0  0
    0.6540    8.9850   18.8920 N   0  0  0  0  0  0  0  0  0  0  0  0
    1.8960    9.0260   18.2900 C   0  0  0  0  0  0  0  0  0  0  0  0
    2.3860    9.9950   17.7350 O   0  0  0  0  0  0  0  0  0  0  0  0
    0.3730    8.0760   19.1880 H   0  0  0  0  0  0  0  0  0  0  0  0
    2.5720    7.7490   18.3140 C   0  0  0  0  0  0  0  0  0  0  0  0
    2.2680    6.7300   19.0820 N   0  0  0  0  0  0  0  0  0  0  0  0
    3.2240    5.7670   18.8450 C   0  0  0  0  0  0  0  0  0  0  0  0
    3.3930    4.5040   19.4420 C   0  0  0  0  0  0  0  0  0  0  0  0
    4.4960    3.7310   19.0000 C   0  0  0  0  0  0  0  0  0  0  0  0
    5.3540    4.1730   17.9790 C   0  0  0  0  0  0  0  0  0  0  0  0
    5.1690    5.4180   17.3790 C   0  0  0  0  0  0  0  0  0  0  0  0
    4.1060    6.1930   17.8570 C   0  0  0  0  0  0  0  0  0  0  0  0
    3.6940    7.4690   17.5630 N   0  0  0  0  0  0  0  0  0  0  0  0
    4.6880    2.7570   19.4590 H   0  0  0  0  0  0  0  0  0  0  0  0
    6.1950    3.5450   17.6700 H   0  0  0  0  0  0  0  0  0  0  0  0
    5.8470    5.7740   16.6010 H   0  0  0  0  0  0  0  0  0  0  0  0
    4.1240    8.1070   16.9080 H   0  0  0  0  0  0  0  0  0  0  0  0
    2.5090    4.0150   20.5510 C   0  0  0  0  0  0  0  0  0  0  0  0
    2.3780    4.9190   21.5600 F   0  0  0  0  0  0  0  0  0  0  0  0
    3.0000    2.9020   21.1480 F   0  0  0  0  0  0  0  0  0  0  0  0
    0.8850    3.5820   19.9580 Cl  0  0  0  0  0  0  0  0  0  0  0  0
  1 13  1  0  0  0  0
  2  1  1  0  0  0  0
  2  7  1  0  0  0  0
  3  2  2  0  0  0  0
  4  5  2  0  0  0  0
  4  3  1  0  0  0  0
  5  6  1  0  0  0  0
  6 10  1  0  0  0  0
  6  1  2  0  0  0  0
  8  4  1  0  0  0  0
  9  5  1  0  0  0  0
 11 14  1  6  0  0  0
 11 12  1  0  0  0  0
 11 22  1  0  0  0  0
 12 16  1  0  0  0  0
 13 17  1  1  0  0  0
 13 11  1  0  0  0  0
 13 12  1  0  0  0  0
 15 12  1  0  0  0  0
 18 22  1  0  0  0  0
 18 19  1  0  0  0  0
 19 20  2  0  0  0  0
 21 20  1  0  0  0  0
 22 21  2  0  0  0  0
 23 19  1  0  0  0  0
 24 26  1  0  0  0  0
 24 18  1  0  0  0  0
 25 24  1  0  0  0  0
 27 24  1  0  0  0  0
 28  3  1  0  0  0  0
 28 31  1  0  0  0  0
 29 32  1  0  0  0  0
 29 28  1  0  0  0  0
 30 29  2  0  0  0  0
 32 33  2  0  0  0  0
 34 33  1  0  0  0  0
 34 35  1  0  0  0  0
 35 45  1  0  0  0  0
 36 35  2  0  0  0  0
 36 41  1  0  0  0  0
 37 36  1  0  0  0  0
 38 39  1  0  0  0  0
 38 37  2  0  0  0  0
 39 34  2  0  0  0  0
 40 39  1  0  0  0  0
 40 32  1  0  0  0  0
 42 37  1  0  0  0  0
 43 38  1  0  0  0  0
 44 40  1  0  0  0  0
 45 47  1  0  0  0  0
 45 46  1  0  0  0  0
 48 45  1  0  0  0  0
M  END
>  <MODEL>
3

>  <REMARK>
 VINA RESULT:    -8.572      3.508      4.701
 INTER + INTRA:         -11.147
 INTER:                 -10.401
 INTRA:                  -0.746
 UNBOUND:                 0.182
  Name = 
  6 active torsions:
  status: ('A' for Active; 'I' for Inactive)
    1  A    between atoms: C_1  and  N_2
    2  A    between atoms: C_6  and  C_7
    3  A    between atoms: C_9  and  C_10
    4  A    between atoms: C_12  and  N_16
    5  A    between atoms: C_17  and  C_19
    6  A    between atoms: C_22  and  C_28
                            x       y       z     vdW  Elec       q    Type
                         _______ _______ _______ _____ _____    ______ ____

>  <TORSDO>
F 6

$$$$
=
 OpenBabel07192307433D

 48 52  0  0  1  0  0  0  0  0999 V2000
    1.0420   12.6530   19.0090 C   0  0  0  0  0  0  0  0  0  0  0  0
    1.5010   11.3440   19.2120 C   0  0  0  0  0  0  0  0  0  0  0  0
    0.6760   10.2250   19.0340 C   0  0  0  0  0  0  0  0  0  0  0  0
   -0.6510   10.4060   18.6480 C   0  0  0  0  0  0  0  0  0  0  0  0
   -1.1200   11.6820   18.3820 C   0  0  0  0  0  0  0  0  0  0  0  0
   -0.2770   12.7890   18.5570 C   0  0  0  0  0  0  0  0  0  0  0  0
    2.5210   11.2240   19.5710 H   0  0  0  0  0  0  0  0  0  0  0  0
   -1.3300    9.5590   18.5260 H   0  0  0  0  0  0  0  0  0  0  0  0
   -2.1650   11.8220   18.0610 H   0  0  0  0  0  0  0  0  0  0  0  0
   -0.7070   13.7810   18.3640 H   0  0  0  0  0  0  0  0  0  0  0  0
    2.7630   14.5300   18.2570 C   0  0  2  0  0  0  0  0  0  0  0  0
    1.5950   15.2300   18.9250 C   0  0  0  0  0  0  0  0  0  0  0  0
    1.9600   13.8190   19.3360 C   0  0  1  0  0  0  0  0  0  0  0  0
    2.6000   14.2200   17.2160 H   0  0  0  0  0  0  0  0  0  0  0  0
    0.7340   15.4240   18.3100 H   0  0  0  0  0  0  0  0  0  0  0  0
    1.7390   16.0120   19.6550 H   0  0  0  0  0  0  0  0  0  0  0  0
    2.4570   13.7310   20.3060 H   0  0  0  0  0  0  0  0  0  0  0  0
    4.8920   15.1290   19.7400 N   0  0  0  0  0  0  0  0  0  0  0  0
    6.2150   15.2340   19.4520 C   0  0  0  0  0  0  0  0  0  0  0  0
    6.3990   15.0590   18.1670 N   0  0  0  0  0  0  0  0  0  0  0  0
    5.1730   14.8200   17.6050 N   0  0  0  0  0  0  0  0  0  0  0  0
    4.2650   14.8450   18.5620 C   0  0  0  0  0  0  0  0  0  0  0  0
    6.9790   15.4300   20.1840 H   0  0  0  0  0  0  0  0  0  0  0  0
    4.3450   15.2670   21.0630 C   0  0  0  0  0  0  0  0  0  0  0  0
    3.9940   14.2960   21.4100 H   0  0  0  0  0  0  0  0  0  0  0  0
    5.1240   15.6280   21.7390 H   0  0  0  0  0  0  0  0  0  0  0  0
    3.5410   16.0010   21.0460 H   0  0  0  0  0  0  0  0  0  0  0  0
    1.1060    8.9130   19.2640 N   0  0  0  0  0  0  0  0  0  0  0  0
    2.0930    8.2400   18.5710 C   0  0  0  0  0  0  0  0  0  0  0  0
    2.6960    8.6670   17.6000 O   0  0  0  0  0  0  0  0  0  0  0  0
    0.6450    8.3620   19.9550 H   0  0  0  0  0  0  0  0  0  0  0  0
    2.3190    6.9040   19.0720 C   0  0  0  0  0  0  0  0  0  0  0  0
    2.7590    5.8830   18.3760 N   0  0  0  0  0  0  0  0  0  0  0  0
    2.7290    4.7960   19.2200 C   0  0  0  0  0  0  0  0  0  0  0  0
    3.0480    3.4490   18.9620 C   0  0  0  0  0  0  0  0  0  0  0  0
    2.9010    2.5410   20.0390 C   0  0  0  0  0  0  0  0  0  0  0  0
    2.5070    2.9610   21.3200 C   0  0  0  0  0  0  0  0  0  0  0  0
    2.2100    4.3000   21.5730 C   0  0  0  0  0  0  0  0  0  0  0  0
    2.3120    5.1810   20.4910 C   0  0  0  0  0  0  0  0  0  0  0  0
    2.0210    6.5160   20.3610 N   0  0  0  0  0  0  0  0  0  0  0  0
    3.1040    1.4780   19.8770 H   0  0  0  0  0  0  0  0  0  0  0  0
    2.4030    2.2250   22.1240 H   0  0  0  0  0  0  0  0  0  0  0  0
    1.8820    4.6270   22.5620 H   0  0  0  0  0  0  0  0  0  0  0  0
    1.6550    7.1270   21.0780 H   0  0  0  0  0  0  0  0  0  0  0  0
    3.4480    2.9670   17.5990 C   0  0  0  0  0  0  0  0  0  0  0  0
    2.4560    3.1060   16.6770 F   0  0  0  0  0  0  0  0  0  0  0  0
    3.7430    1.6440   17.5890 F   0  0  0  0  0  0  0  0  0  0  0  0
    4.9040    3.8030   17.0030 Cl  0  0  0  0  0  0  0  0  0  0  0  0
  1  2  1  0  0  0  0
  1 13  1  0  0  0  0
  2  7  1  0  0  0  0
  3  2  2  0  0  0  0
  3 28  1  0  0  0  0
  4  3  1  0  0  0  0
  5  6  1  0  0  0  0
  5  4  2  0  0  0  0
  6  1  2  0  0  0  0
  8  4  1  0  0  0  0
  9  5  1  0  0  0  0
 10  6  1  0  0  0  0
 11 14  1  6  0  0  0
 11 22  1  0  0  0  0
 11 12  1  0  0  0  0
 11 13  1  0  0  0  0
 12 13  1  0  0  0  0
 12 16  1  0  0  0  0
 13 17  1  1  0  0  0
 15 12  1  0  0  0  0
 18 24  1  0  0  0  0
 19 18  1  0  0  0  0
 19 23  1  0  0  0  0
 20 19  2  0  0  0  0
 21 20  1  0  0  0  0
 21 22  2  0  0  0  0
 22 18  1  0  0  0  0
 24 25  1  0  0  0  0
 24 26  1  0  0  0  0
 27 24  1  0  0  0  0
 28 31  1  0  0  0  0
 29 32  1  0  0  0  0
 29 28  1  0  0  0  0
 30 29  2  0  0  0  0
 32 40  1  0  0  0  0
 33 32  2  0  0  0  0
 33 34  1  0  0  0  0
 34 39  1  0  0  0  0
 35 34  2  0  0  0  0
 35 36  1  0  0  0  0
 36 37  2  0  0  0  0
 37 38  1  0  0  0  0
 37 42  1  0  0  0  0
 38 43  1  0  0  0  0
 39 38  2  0  0  0  0
 40 39  1  0  0  0  0
 40 44  1  0  0  0  0
 41 36  1  0  0  0  0
 45 35  1  0  0  0  0
 46 45  1  0  0  0  0
 47 45  1  0  0  0  0
 48 45  1  0  0  0  0
M  END
>  <MODEL>
4

>  <REMARK>
 VINA RESULT:    -8.442      4.446      5.967
 INTER + INTRA:         -10.974
 INTER:                 -10.666
 INTRA:                  -0.309
 UNBOUND:                 0.182
  Name = 
  6 active torsions:
  status: ('A' for Active; 'I' for Inactive)
    1  A    between atoms: C_1  and  N_2
    2  A    between atoms: C_6  and  C_7
    3  A    between atoms: C_9  and  C_10
    4  A    between atoms: C_12  and  N_16
    5  A    between atoms: C_17  and  C_19
    6  A    between atoms: C_22  and  C_28
                            x       y       z     vdW  Elec       q    Type
                         _______ _______ _______ _____ _____    ______ ____

>  <TORSDO>
F 6

$$$$
=
 OpenBabel07192307433D

 48 52  0  0  1  0  0  0  0  0999 V2000
   -1.4000   11.8800   20.0200 C   0  0  0  0  0  0  0  0  0  0  0  0
   -0.4190   10.8840   19.9190 C   0  0  0  0  0  0  0  0  0  0  0  0
   -0.3280   10.0320   18.8100 C   0  0  0  0  0  0  0  0  0  0  0  0
   -1.2420   10.1640   17.7660 C   0  0  0  0  0  0  0  0  0  0  0  0
   -2.1870   11.1760   17.8070 C   0  0  0  0  0  0  0  0  0  0  0  0
   -2.2580   12.0260   18.9210 C   0  0  0  0  0  0  0  0  0  0  0  0
    0.2480   10.7550   20.7690 H   0  0  0  0  0  0  0  0  0  0  0  0
   -1.2180    9.5010   16.8990 H   0  0  0  0  0  0  0  0  0  0  0  0
   -2.9000   11.2900   16.9730 H   0  0  0  0  0  0  0  0  0  0  0  0
   -3.0450   12.7910   18.9190 H   0  0  0  0  0  0  0  0  0  0  0  0
   -2.5140   12.3260   22.3890 C   0  0  2  0  0  0  0  0  0  0  0  0
   -1.0320   12.1090   22.6210 C   0  0  0  0  0  0  0  0  0  0  0  0
   -1.5090   12.6850   21.3040 C   0  0  1  0  0  0  0  0  0  0  0  0
   -3.1120   11.4160   22.2450 H   0  0  0  0  0  0  0  0  0  0  0  0
   -0.7000   11.0890   22.6930 H   0  0  0  0  0  0  0  0  0  0  0  0
   -0.4530   12.7560   23.2640 H   0  0  0  0  0  0  0  0  0  0  0  0
   -1.3280   13.7550   21.1710 H   0  0  0  0  0  0  0  0  0  0  0  0
   -4.4330   14.1650   22.5560 N   0  0  0  0  0  0  0  0  0  0  0  0
   -4.8030   15.0230   23.5430 C   0  0  0  0  0  0  0  0  0  0  0  0
   -3.9740   14.9150   24.5510 N   0  0  0  0  0  0  0  0  0  0  0  0
   -3.0500   13.9580   24.2240 N   0  0  0  0  0  0  0  0  0  0  0  0
   -3.3400   13.4930   23.0240 C   0  0  0  0  0  0  0  0  0  0  0  0
   -5.6540   15.6790   23.4850 H   0  0  0  0  0  0  0  0  0  0  0  0
   -5.1310   14.0280   21.3070 C   0  0  0  0  0  0  0  0  0  0  0  0
   -6.2040   14.1020   21.4850 H   0  0  0  0  0  0  0  0  0  0  0  0
   -4.8240   14.8310   20.6330 H   0  0  0  0  0  0  0  0  0  0  0  0
   -4.8670   13.0770   20.8480 H   0  0  0  0  0  0  0  0  0  0  0  0
    0.6230    9.0090   18.7050 N   0  0  0  0  0  0  0  0  0  0  0  0
    1.9080    9.1330   18.2160 C   0  0  0  0  0  0  0  0  0  0  0  0
    2.3900   10.1430   17.7300 O   0  0  0  0  0  0  0  0  0  0  0  0
    0.3690    8.0780   18.9540 H   0  0  0  0  0  0  0  0  0  0  0  0
    2.6490    7.8930   18.2680 C   0  0  0  0  0  0  0  0  0  0  0  0
    3.5910    7.5220   17.4340 N   0  0  0  0  0  0  0  0  0  0  0  0
    3.9490    6.2430   17.7970 C   0  0  0  0  0  0  0  0  0  0  0  0
    4.8750    5.3660   17.2020 C   0  0  0  0  0  0  0  0  0  0  0  0
    5.0180    4.0890   17.7970 C   0  0  0  0  0  0  0  0  0  0  0  0
    4.3130    3.7220   18.9550 C   0  0  0  0  0  0  0  0  0  0  0  0
    3.4100    4.6030   19.5500 C   0  0  0  0  0  0  0  0  0  0  0  0
    3.2410    5.8450   18.9270 C   0  0  0  0  0  0  0  0  0  0  0  0
    2.3950    6.8940   19.1840 N   0  0  0  0  0  0  0  0  0  0  0  0
    5.7010    3.3610   17.3490 H   0  0  0  0  0  0  0  0  0  0  0  0
    4.4520    2.7240   19.3800 H   0  0  0  0  0  0  0  0  0  0  0  0
    2.8440    4.3140   20.4380 H   0  0  0  0  0  0  0  0  0  0  0  0
    1.7020    6.9460   19.9170 H   0  0  0  0  0  0  0  0  0  0  0  0
    5.6250    5.7190   15.9510 C   0  0  0  0  0  0  0  0  0  0  0  0
    6.8240    6.3120   16.2030 F   0  0  0  0  0  0  0  0  0  0  0  0
    4.9540    6.6130   15.1850 F   0  0  0  0  0  0  0  0  0  0  0  0
    5.8990    4.2920   14.9200 Cl  0  0  0  0  0  0  0  0  0  0  0  0
  1 13  1  0  0  0  0
  2  1  1  0  0  0  0
  2  7  1  0  0  0  0
  3  2  2  0  0  0  0
  4  5  2  0  0  0  0
  4  3  1  0  0  0  0
  5  6  1  0  0  0  0
  6  1  2  0  0  0  0
  8  4  1  0  0  0  0
  9  5  1  0  0  0  0
 10  6  1  0  0  0  0
 11 14  1  6  0  0  0
 11 12  1  0  0  0  0
 11 22  1  0  0  0  0
 12 15  1  0  0  0  0
 12 16  1  0  0  0  0
 13 17  1  6  0  0  0
 13 11  1  0  0  0  0
 13 12  1  0  0  0  0
 18 22  1  0  0  0  0
 18 19  1  0  0  0  0
 19 20  2  0  0  0  0
 21 20  1  0  0  0  0
 22 21  2  0  0  0  0
 23 19  1  0  0  0  0
 24 25  1  0  0  0  0
 24 18  1  0  0  0  0
 26 24  1  0  0  0  0
 27 24  1  0  0  0  0
 28  3  1  0  0  0  0
 28 31  1  0  0  0  0
 29 32  1  0  0  0  0
 29 28  1  0  0  0  0
 30 29  2  0  0  0  0
 32 40  1  0  0  0  0
 33 34  1  0  0  0  0
 33 32  2  0  0  0  0
 34 39  1  0  0  0  0
 35 34  2  0  0  0  0
 35 36  1  0  0  0  0
 36 37  2  0  0  0  0
 37 42  1  0  0  0  0
 37 38  1  0  0  0  0
 38 43  1  0  0  0  0
 39 40  1  0  0  0  0
 39 38  2  0  0  0  0
 40 44  1  0  0  0  0
 41 36  1  0  0  0  0
 45 46  1  0  0  0  0
 45 35  1  0  0  0  0
 47 45  1  0  0  0  0
 48 45  1  0  0  0  0
M  END
>  <MODEL>
5

>  <REMARK>
 VINA RESULT:    -8.430      3.164      4.298
 INTER + INTRA:         -10.959
 INTER:                 -10.351
 INTRA:                  -0.608
 UNBOUND:                 0.182
  Name = 
  6 active torsions:
  status: ('A' for Active; 'I' for Inactive)
    1  A    between atoms: C_1  and  N_2
    2  A    between atoms: C_6  and  C_7
    3  A    between atoms: C_9  and  C_10
    4  A    between atoms: C_12  and  N_16
    5  A    between atoms: C_17  and  C_19
    6  A    between atoms: C_22  and  C_28
                            x       y       z     vdW  Elec       q    Type
                         _______ _______ _______ _____ _____    ______ ____

>  <TORSDO>
F 6

$$$$
=
 OpenBabel07192307433D

 48 52  0  0  1  0  0  0  0  0999 V2000
   -0.3530   11.4810   19.2120 C   0  0  0  0  0  0  0  0  0  0  0  0
    0.3110   10.2930   18.8760 C   0  0  0  0  0  0  0  0  0  0  0  0
    1.5910   10.2850   18.3070 C   0  0  0  0  0  0  0  0  0  0  0  0
    2.2380   11.4940   18.0540 C   0  0  0  0  0  0  0  0  0  0  0  0
    1.6350   12.6830   18.4280 C   0  0  0  0  0  0  0  0  0  0  0  0
    0.3570   12.6720   19.0060 C   0  0  0  0  0  0  0  0  0  0  0  0
   -0.2320    9.3610   19.0240 H   0  0  0  0  0  0  0  0  0  0  0  0
    3.2240   11.5270   17.5870 H   0  0  0  0  0  0  0  0  0  0  0  0
    2.1540   13.6380   18.2430 H   0  0  0  0  0  0  0  0  0  0  0  0
   -0.0890   13.6430   19.2540 H   0  0  0  0  0  0  0  0  0  0  0  0
   -2.5730   12.6700   20.0520 C   0  0  2  0  0  0  0  0  0  0  0  0
   -2.9360   11.8480   18.8320 C   0  0  0  0  0  0  0  0  0  0  0  0
   -1.7840   11.4140   19.7150 C   0  0  1  0  0  0  0  0  0  0  0  0
   -2.0950   13.6390   19.8490 H   0  0  0  0  0  0  0  0  0  0  0  0
   -2.7600   12.3030   17.8740 H   0  0  0  0  0  0  0  0  0  0  0  0
   -3.8100   11.2140   18.8100 H   0  0  0  0  0  0  0  0  0  0  0  0
   -1.9880   10.5500   20.3540 H   0  0  0  0  0  0  0  0  0  0  0  0
   -2.9950   12.4660   22.6730 N   0  0  0  0  0  0  0  0  0  0  0  0
   -4.0920   12.6700   23.4480 C   0  0  0  0  0  0  0  0  0  0  0  0
   -5.1190   12.9570   22.6880 N   0  0  0  0  0  0  0  0  0  0  0  0
   -4.6820   12.9540   21.3890 N   0  0  0  0  0  0  0  0  0  0  0  0
   -3.3930   12.6750   21.3840 C   0  0  0  0  0  0  0  0  0  0  0  0
   -4.0950   12.6030   24.5220 H   0  0  0  0  0  0  0  0  0  0  0  0
   -1.6970   12.1330   23.1920 C   0  0  0  0  0  0  0  0  0  0  0  0
   -1.4870   11.0830   22.9920 H   0  0  0  0  0  0  0  0  0  0  0  0
   -0.9420   12.7490   22.6980 H   0  0  0  0  0  0  0  0  0  0  0  0
   -1.6680   12.3500   24.2590 H   0  0  0  0  0  0  0  0  0  0  0  0
    2.2560    9.1100   17.9330 N   0  0  0  0  0  0  0  0  0  0  0  0
    2.3570    7.9530   18.6800 C   0  0  0  0  0  0  0  0  0  0  0  0
    1.9410    7.8030   19.8170 O   0  0  0  0  0  0  0  0  0  0  0  0
    2.7580    9.0850   17.0720 H   0  0  0  0  0  0  0  0  0  0  0  0
    3.0880    6.9090   18.0000 C   0  0  0  0  0  0  0  0  0  0  0  0
    2.9070    5.6180   18.1490 N   0  0  0  0  0  0  0  0  0  0  0  0
    3.8760    5.0010   17.3900 C   0  0  0  0  0  0  0  0  0  0  0  0
    4.1610    3.6310   17.2380 C   0  0  0  0  0  0  0  0  0  0  0  0
    5.2460    3.2940   16.3920 C   0  0  0  0  0  0  0  0  0  0  0  0
    5.9770    4.2680   15.6930 C   0  0  0  0  0  0  0  0  0  0  0  0
    5.6780    5.6240   15.8350 C   0  0  0  0  0  0  0  0  0  0  0  0
    4.6350    5.9480   16.7100 C   0  0  0  0  0  0  0  0  0  0  0  0
    4.1400    7.1530   17.1430 N   0  0  0  0  0  0  0  0  0  0  0  0
    5.5260    2.2440   16.2700 H   0  0  0  0  0  0  0  0  0  0  0  0
    6.8100    3.9650   15.0520 H   0  0  0  0  0  0  0  0  0  0  0  0
    6.2590    6.3860   15.3110 H   0  0  0  0  0  0  0  0  0  0  0  0
    4.4740    8.0710   16.8850 H   0  0  0  0  0  0  0  0  0  0  0  0
    3.4140    2.5680   17.9890 C   0  0  0  0  0  0  0  0  0  0  0  0
    3.7590    1.3080   17.6060 F   0  0  0  0  0  0  0  0  0  0  0  0
    2.0770    2.6360   17.7830 F   0  0  0  0  0  0  0  0  0  0  0  0
    3.6500    2.7140   19.7490 Cl  0  0  0  0  0  0  0  0  0  0  0  0
  1 13  1  0  0  0  0
  2  7  1  0  0  0  0
  2  1  2  0  0  0  0
  3  2  1  0  0  0  0
  4  3  2  0  0  0  0
  4  5  1  0  0  0  0
  5  6  2  0  0  0  0
  6  1  1  0  0  0  0
  6 10  1  0  0  0  0
  8  4  1  0  0  0  0
  9  5  1  0  0  0  0
 11 14  1  6  0  0  0
 11 22  1  0  0  0  0
 12 13  1  0  0  0  0
 12 11  1  0  0  0  0
 13 11  1  0  0  0  0
 13 17  1  1  0  0  0
 15 12  1  0  0  0  0
 16 12  1  0  0  0  0
 18 24  1  0  0  0  0
 18 19  1  0  0  0  0
 19 23  1  0  0  0  0
 20 19  2  0  0  0  0
 21 20  1  0  0  0  0
 22 21  2  0  0  0  0
 22 18  1  0  0  0  0
 24 27  1  0  0  0  0
 25 24  1  0  0  0  0
 26 24  1  0  0  0  0
 28  3  1  0  0  0  0
 28 29  1  0  0  0  0
 29 30  2  0  0  0  0
 31 28  1  0  0  0  0
 32 33  2  0  0  0  0
 32 29  1  0  0  0  0
 34 33  1  0  0  0  0
 35 34  1  0  0  0  0
 35 45  1  0  0  0  0
 36 35  2  0  0  0  0
 37 38  2  0  0  0  0
 37 36  1  0  0  0  0
 38 39  1  0  0  0  0
 39 40  1  0  0  0  0
 39 34  2  0  0  0  0
 40 32  1  0  0  0  0
 41 36  1  0  0  0  0
 42 37  1  0  0  0  0
 43 38  1  0  0  0  0
 44 40  1  0  0  0  0
 45 48  1  0  0  0  0
 46 45  1  0  0  0  0
 47 45  1  0  0  0  0
M  END
>  <MODEL>
6

>  <REMARK>
 VINA RESULT:    -8.385      2.975      3.871
 INTER + INTRA:         -10.899
 INTER:                 -10.684
 INTRA:                  -0.215
 UNBOUND:                 0.182
  Name = 
  6 active torsions:
  status: ('A' for Active; 'I' for Inactive)
    1  A    between atoms: C_1  and  N_2
    2  A    between atoms: C_6  and  C_7
    3  A    between atoms: C_9  and  C_10
    4  A    between atoms: C_12  and  N_16
    5  A    between atoms: C_17  and  C_19
    6  A    between atoms: C_22  and  C_28
                            x       y       z     vdW  Elec       q    Type
                         _______ _______ _______ _____ _____    ______ ____

>  <TORSDO>
F 6

$$$$
=
 OpenBabel07192307433D

 48 52  0  0  1  0  0  0  0  0999 V2000
    2.8730    5.0900   18.6400 C   0  0  0  0  0  0  0  0  0  0  0  0
    2.6470    6.4730   18.6250 C   0  0  0  0  0  0  0  0  0  0  0  0
    1.9950    7.1370   19.6730 C   0  0  0  0  0  0  0  0  0  0  0  0
    1.5430    6.4080   20.7720 C   0  0  0  0  0  0  0  0  0  0  0  0
    1.8020    5.0500   20.8450 C   0  0  0  0  0  0  0  0  0  0  0  0
    2.4650    4.4030   19.7920 C   0  0  0  0  0  0  0  0  0  0  0  0
    2.9520    7.0170   17.7330 H   0  0  0  0  0  0  0  0  0  0  0  0
    1.0070    6.8880   21.5930 H   0  0  0  0  0  0  0  0  0  0  0  0
    1.4580    4.4770   21.7230 H   0  0  0  0  0  0  0  0  0  0  0  0
    2.6170    3.3200   19.8850 H   0  0  0  0  0  0  0  0  0  0  0  0
    4.9240    3.9460   17.4020 C   0  0  2  0  0  0  0  0  0  0  0  0
    3.7890    2.9410   17.4160 C   0  0  0  0  0  0  0  0  0  0  0  0
    3.4800    4.4240   17.4170 C   0  0  1  0  0  0  0  0  0  0  0  0
    5.4970    4.0310   18.3370 H   0  0  0  0  0  0  0  0  0  0  0  0
    3.6790    2.3510   18.3080 H   0  0  0  0  0  0  0  0  0  0  0  0
    3.5130    2.3780   16.5360 H   0  0  0  0  0  0  0  0  0  0  0  0
    3.1110    4.8230   16.4680 H   0  0  0  0  0  0  0  0  0  0  0  0
    6.7420    5.2340   15.9440 N   0  0  0  0  0  0  0  0  0  0  0  0
    7.2320    5.0320   14.6940 C   0  0  0  0  0  0  0  0  0  0  0  0
    6.5980    4.0340   14.1300 N   0  0  0  0  0  0  0  0  0  0  0  0
    5.6830    3.5650   15.0370 N   0  0  0  0  0  0  0  0  0  0  0  0
    5.7850    4.2810   16.1400 C   0  0  0  0  0  0  0  0  0  0  0  0
    8.0230    5.6120   14.2530 H   0  0  0  0  0  0  0  0  0  0  0  0
    7.2200    6.2540   16.8380 C   0  0  0  0  0  0  0  0  0  0  0  0
    6.7650    7.2080   16.5720 H   0  0  0  0  0  0  0  0  0  0  0  0
    6.9390    5.9970   17.8620 H   0  0  0  0  0  0  0  0  0  0  0  0
    8.3060    6.3010   16.7840 H   0  0  0  0  0  0  0  0  0  0  0  0
    1.7300    8.5120   19.6600 N   0  0  0  0  0  0  0  0  0  0  0  0
    1.3950    9.2720   18.5570 C   0  0  0  0  0  0  0  0  0  0  0  0
    1.3490    8.8720   17.4060 O   0  0  0  0  0  0  0  0  0  0  0  0
    1.8300    9.0370   20.5020 H   0  0  0  0  0  0  0  0  0  0  0  0
    1.1570   10.6600   18.8830 C   0  0  0  0  0  0  0  0  0  0  0  0
    0.2710   11.1100   19.7390 N   0  0  0  0  0  0  0  0  0  0  0  0
    0.3210   12.4840   19.6630 C   0  0  0  0  0  0  0  0  0  0  0  0
   -0.4550   13.4490   20.3310 C   0  0  0  0  0  0  0  0  0  0  0  0
   -0.1820   14.8070   20.0310 C   0  0  0  0  0  0  0  0  0  0  0  0
    0.8450   15.1840   19.1500 C   0  0  0  0  0  0  0  0  0  0  0  0
    1.6230   14.2220   18.5060 C   0  0  0  0  0  0  0  0  0  0  0  0
    1.3130   12.8830   18.7730 C   0  0  0  0  0  0  0  0  0  0  0  0
    1.8040   11.7070   18.2620 N   0  0  0  0  0  0  0  0  0  0  0  0
   -0.7830   15.5920   20.4990 H   0  0  0  0  0  0  0  0  0  0  0  0
    1.0200   16.2440   18.9450 H   0  0  0  0  0  0  0  0  0  0  0  0
    2.4070   14.5110   17.8030 H   0  0  0  0  0  0  0  0  0  0  0  0
    2.5190   11.6070   17.5550 H   0  0  0  0  0  0  0  0  0  0  0  0
   -1.5750   13.0780   21.2570 C   0  0  0  0  0  0  0  0  0  0  0  0
   -2.5060   12.2800   20.6670 F   0  0  0  0  0  0  0  0  0  0  0  0
   -2.2690   14.1600   21.6840 F   0  0  0  0  0  0  0  0  0  0  0  0
   -0.9750   12.2650   22.7260 Cl  0  0  0  0  0  0  0  0  0  0  0  0
  1  6  1  0  0  0  0
  2  1  2  0  0  0  0
  2  3  1  0  0  0  0
  3  4  2  0  0  0  0
  4  5  1  0  0  0  0
  4  8  1  0  0  0  0
  5  9  1  0  0  0  0
  6 10  1  0  0  0  0
  6  5  2  0  0  0  0
  7  2  1  0  0  0  0
 11 12  1  0  0  0  0
 11 13  1  0  0  0  0
 11 14  1  1  0  0  0
 12 13  1  0  0  0  0
 12 15  1  0  0  0  0
 13 17  1  6  0  0  0
 13  1  1  0  0  0  0
 16 12  1  0  0  0  0
 18 22  1  0  0  0  0
 18 24  1  0  0  0  0
 19 18  1  0  0  0  0
 20 19  2  0  0  0  0
 20 21  1  0  0  0  0
 21 22  2  0  0  0  0
 22 11  1  0  0  0  0
 23 19  1  0  0  0  0
 24 26  1  0  0  0  0
 25 24  1  0  0  0  0
 27 24  1  0  0  0  0
 28  3  1  0  0  0  0
 28 31  1  0  0  0  0
 29 32  1  0  0  0  0
 29 28  1  0  0  0  0
 30 29  2  0  0  0  0
 32 33  2  0  0  0  0
 34 33  1  0  0  0  0
 34 35  1  0  0  0  0
 35 45  1  0  0  0  0
 36 35  2  0  0  0  0
 36 41  1  0  0  0  0
 37 36  1  0  0  0  0
 38 39  1  0  0  0  0
 38 37  2  0  0  0  0
 39 34  2  0  0  0  0
 40 39  1  0  0  0  0
 40 32  1  0  0  0  0
 42 37  1  0  0  0  0
 43 38  1  0  0  0  0
 44 40  1  0  0  0  0
 45 47  1  0  0  0  0
 45 48  1  0  0  0  0
 46 45  1  0  0  0  0
M  END
>  <MODEL>
7

>  <REMARK>
 VINA RESULT:    -8.355      4.818      9.715
 INTER + INTRA:         -10.860
 INTER:                 -10.396
 INTRA:                  -0.464
 UNBOUND:                 0.182
  Name = 
  6 active torsions:
  status: ('A' for Active; 'I' for Inactive)
    1  A    between atoms: C_1  and  N_2
    2  A    between atoms: C_6  and  C_7
    3  A    between atoms: C_9  and  C_10
    4  A    between atoms: C_12  and  N_16
    5  A    between atoms: C_17  and  C_19
    6  A    between atoms: C_22  and  C_28
                            x       y       z     vdW  Elec       q    Type
                         _______ _______ _______ _____ _____    ______ ____

>  <TORSDO>
F 6

$$$$
=
 OpenBabel07192307433D

 48 52  0  0  1  0  0  0  0  0999 V2000
    4.4050    3.7980   17.1240 C   0  0  0  0  0  0  0  0  0  0  0  0
    3.8510    4.9100   17.7740 C   0  0  0  0  0  0  0  0  0  0  0  0
    2.7360    4.8060   18.6170 C   0  0  0  0  0  0  0  0  0  0  0  0
    2.1450    3.5610   18.8220 C   0  0  0  0  0  0  0  0  0  0  0  0
    2.7030    2.4340   18.2430 C   0  0  0  0  0  0  0  0  0  0  0  0
    3.8240    2.5550   17.4090 C   0  0  0  0  0  0  0  0  0  0  0  0
    4.2880    5.8830   17.5550 H   0  0  0  0  0  0  0  0  0  0  0  0
    1.2590    3.4470   19.4510 H   0  0  0  0  0  0  0  0  0  0  0  0
    2.2440    1.4470   18.4180 H   0  0  0  0  0  0  0  0  0  0  0  0
    4.2090    1.6350   16.9490 H   0  0  0  0  0  0  0  0  0  0  0  0
    5.3470    4.8180   14.8610 C   0  0  2  0  0  0  0  0  0  0  0  0
    6.2000    5.3630   15.9900 C   0  0  0  0  0  0  0  0  0  0  0  0
    5.5380    4.0080   16.1340 C   0  0  1  0  0  0  0  0  0  0  0  0
    4.3760    5.3130   14.7150 H   0  0  0  0  0  0  0  0  0  0  0  0
    5.8190    6.2240   16.5090 H   0  0  0  0  0  0  0  0  0  0  0  0
    7.2780    5.3850   15.9320 H   0  0  0  0  0  0  0  0  0  0  0  0
    6.2110    3.1500   16.0450 H   0  0  0  0  0  0  0  0  0  0  0  0
    7.0830    4.5010   12.8670 N   0  0  0  0  0  0  0  0  0  0  0  0
    7.1320    3.6410   11.8160 C   0  0  0  0  0  0  0  0  0  0  0  0
    6.0540    2.8980   11.8070 N   0  0  0  0  0  0  0  0  0  0  0  0
    5.2900    3.2690   12.8830 N   0  0  0  0  0  0  0  0  0  0  0  0
    5.9230    4.2260   13.5320 C   0  0  0  0  0  0  0  0  0  0  0  0
    7.9440    3.5940   11.1110 H   0  0  0  0  0  0  0  0  0  0  0  0
    8.1120    5.4580   13.1690 C   0  0  0  0  0  0  0  0  0  0  0  0
    8.0180    5.7710   14.2090 H   0  0  0  0  0  0  0  0  0  0  0  0
    9.0900    4.9940   13.0220 H   0  0  0  0  0  0  0  0  0  0  0  0
    8.0300    6.3030   12.4880 H   0  0  0  0  0  0  0  0  0  0  0  0
    2.1480    5.9090   19.2470 N   0  0  0  0  0  0  0  0  0  0  0  0
    2.3830    7.2390   18.9590 C   0  0  0  0  0  0  0  0  0  0  0  0
    3.1990    7.6590   18.1550 O   0  0  0  0  0  0  0  0  0  0  0  0
    1.5300    5.7610   20.0150 H   0  0  0  0  0  0  0  0  0  0  0  0
    1.5950    8.1370   19.7730 C   0  0  0  0  0  0  0  0  0  0  0  0
    1.0580    9.2660   19.3760 N   0  0  0  0  0  0  0  0  0  0  0  0
    0.4850    9.8350   20.4910 C   0  0  0  0  0  0  0  0  0  0  0  0
   -0.1760   11.0700   20.6310 C   0  0  0  0  0  0  0  0  0  0  0  0
   -0.6490   11.3990   21.9250 C   0  0  0  0  0  0  0  0  0  0  0  0
   -0.5180   10.5200   23.0120 C   0  0  0  0  0  0  0  0  0  0  0  0
    0.1220    9.2890   22.8630 C   0  0  0  0  0  0  0  0  0  0  0  0
    0.6280    8.9950   21.5910 C   0  0  0  0  0  0  0  0  0  0  0  0
    1.3690    7.9420   21.1180 N   0  0  0  0  0  0  0  0  0  0  0  0
   -1.1380   12.3630   22.0890 H   0  0  0  0  0  0  0  0  0  0  0  0
   -0.8960   10.8140   23.9960 H   0  0  0  0  0  0  0  0  0  0  0  0
    0.2460    8.6130   23.7110 H   0  0  0  0  0  0  0  0  0  0  0  0
    1.6990    7.1470   21.6500 H   0  0  0  0  0  0  0  0  0  0  0  0
   -0.3100   12.0410   19.4950 C   0  0  0  0  0  0  0  0  0  0  0  0
    0.8910   12.4070   18.9670 F   0  0  0  0  0  0  0  0  0  0  0  0
   -0.8860   13.2050   19.8780 F   0  0  0  0  0  0  0  0  0  0  0  0
   -1.3330   11.3910   18.1880 Cl  0  0  0  0  0  0  0  0  0  0  0  0
  1  6  2  0  0  0  0
  1  2  1  0  0  0  0
  2  3  2  0  0  0  0
  3  4  1  0  0  0  0
  3 28  1  0  0  0  0
  4  8  1  0  0  0  0
  5  9  1  0  0  0  0
  5  4  2  0  0  0  0
  6  5  1  0  0  0  0
  7  2  1  0  0  0  0
 10  6  1  0  0  0  0
 11 14  1  6  0  0  0
 11 12  1  0  0  0  0
 11 13  1  0  0  0  0
 12 13  1  0  0  0  0
 12 15  1  0  0  0  0
 13 17  1  6  0  0  0
 13  1  1  0  0  0  0
 16 12  1  0  0  0  0
 18 24  1  0  0  0  0
 18 22  1  0  0  0  0
 19 18  1  0  0  0  0
 20 19  2  0  0  0  0
 20 21  1  0  0  0  0
 21 22  2  0  0  0  0
 22 11  1  0  0  0  0
 23 19  1  0  0  0  0
 24 25  1  0  0  0  0
 26 24  1  0  0  0  0
 27 24  1  0  0  0  0
 28 31  1  0  0  0  0
 29 28  1  0  0  0  0
 29 32  1  0  0  0  0
 30 29  2  0  0  0  0
 32 40  1  0  0  0  0
 33 32  2  0  0  0  0
 33 34  1  0  0  0  0
 34 35  2  0  0  0  0
 34 39  1  0  0  0  0
 35 36  1  0  0  0  0
 36 41  1  0  0  0  0
 36 37  2  0  0  0  0
 37 42  1  0  0  0  0
 38 37  1  0  0  0  0
 38 43  1  0  0  0  0
 39 38  2  0  0  0  0
 40 39  1  0  0  0  0
 40 44  1  0  0  0  0
 45 47  1  0  0  0  0
 45 35  1  0  0  0  0
 46 45  1  0  0  0  0
 48 45  1  0  0  0  0
M  END
>  <MODEL>
8

>  <REMARK>
 VINA RESULT:    -8.340      4.202      9.693
 INTER + INTRA:         -10.841
 INTER:                 -10.835
 INTRA:                  -0.006
 UNBOUND:                 0.182
  Name = 
  6 active torsions:
  status: ('A' for Active; 'I' for Inactive)
    1  A    between atoms: C_1  and  N_2
    2  A    between atoms: C_6  and  C_7
    3  A    between atoms: C_9  and  C_10
    4  A    between atoms: C_12  and  N_16
    5  A    between atoms: C_17  and  C_19
    6  A    between atoms: C_22  and  C_28
                            x       y       z     vdW  Elec       q    Type
                         _______ _______ _______ _____ _____    ______ ____

>  <TORSDO>
F 6

$$$$
=
 OpenBabel07192307433D

 48 52  0  0  1  0  0  0  0  0999 V2000
   -0.8050   10.6600   21.3310 C   0  0  0  0  0  0  0  0  0  0  0  0
   -0.1150    9.8190   20.4480 C   0  0  0  0  0  0  0  0  0  0  0  0
    0.8630    8.9140   20.8850 C   0  0  0  0  0  0  0  0  0  0  0  0
    1.1740    8.8420   22.2410 C   0  0  0  0  0  0  0  0  0  0  0  0
    0.4690    9.6170   23.1470 C   0  0  0  0  0  0  0  0  0  0  0  0
   -0.5120   10.5100   22.6940 C   0  0  0  0  0  0  0  0  0  0  0  0
   -0.3270    9.9310   19.3860 H   0  0  0  0  0  0  0  0  0  0  0  0
    1.9490    8.1680   22.6130 H   0  0  0  0  0  0  0  0  0  0  0  0
    0.7060    9.5470   24.2220 H   0  0  0  0  0  0  0  0  0  0  0  0
   -1.0190   11.1230   23.4490 H   0  0  0  0  0  0  0  0  0  0  0  0
   -1.7240   13.1490   21.2220 C   0  0  2  0  0  0  0  0  0  0  0  0
   -1.2740   12.7730   19.8240 C   0  0  0  0  0  0  0  0  0  0  0  0
   -1.7640   11.6960   20.7710 C   0  0  1  0  0  0  0  0  0  0  0  0
   -0.9250   13.4420   21.9170 H   0  0  0  0  0  0  0  0  0  0  0  0
   -0.2270   12.8870   19.6080 H   0  0  0  0  0  0  0  0  0  0  0  0
   -1.8790   12.9800   18.9540 H   0  0  0  0  0  0  0  0  0  0  0  0
   -2.7610   11.3030   20.5520 H   0  0  0  0  0  0  0  0  0  0  0  0
   -3.9430   13.6710   22.5980 N   0  0  0  0  0  0  0  0  0  0  0  0
   -4.9330   14.5870   22.4360 C   0  0  0  0  0  0  0  0  0  0  0  0
   -4.7260   15.2670   21.3360 N   0  0  0  0  0  0  0  0  0  0  0  0
   -3.5690   14.7960   20.7740 N   0  0  0  0  0  0  0  0  0  0  0  0
   -3.0870   13.8430   21.5480 C   0  0  0  0  0  0  0  0  0  0  0  0
   -5.7520   14.7190   23.1210 H   0  0  0  0  0  0  0  0  0  0  0  0
   -3.8660   12.7600   23.7080 C   0  0  0  0  0  0  0  0  0  0  0  0
   -4.3690   11.8300   23.4450 H   0  0  0  0  0  0  0  0  0  0  0  0
   -2.8170   12.5490   23.9290 H   0  0  0  0  0  0  0  0  0  0  0  0
   -4.3130   13.2230   24.5860 H   0  0  0  0  0  0  0  0  0  0  0  0
    1.5870    8.0900   20.0140 N   0  0  0  0  0  0  0  0  0  0  0  0
    2.0400    8.4280   18.7540 C   0  0  0  0  0  0  0  0  0  0  0  0
    1.8150    9.4780   18.1750 O   0  0  0  0  0  0  0  0  0  0  0  0
    1.7700    7.1460   20.2740 H   0  0  0  0  0  0  0  0  0  0  0  0
    2.7810    7.3610   18.1200 C   0  0  0  0  0  0  0  0  0  0  0  0
    2.5210    6.0790   18.2160 N   0  0  0  0  0  0  0  0  0  0  0  0
    3.5280    5.4270   17.5400 C   0  0  0  0  0  0  0  0  0  0  0  0
    3.7550    4.0470   17.3790 C   0  0  0  0  0  0  0  0  0  0  0  0
    4.9010    3.6710   16.6360 C   0  0  0  0  0  0  0  0  0  0  0  0
    5.7480    4.6210   16.0400 C   0  0  0  0  0  0  0  0  0  0  0  0
    5.5060    5.9860   16.1880 C   0  0  0  0  0  0  0  0  0  0  0  0
    4.3990    6.3470   16.9640 C   0  0  0  0  0  0  0  0  0  0  0  0
    3.9250    7.5670   17.3790 N   0  0  0  0  0  0  0  0  0  0  0  0
    5.1380    2.6110   16.5130 H   0  0  0  0  0  0  0  0  0  0  0  0
    6.6240    4.2870   15.4770 H   0  0  0  0  0  0  0  0  0  0  0  0
    6.1750    6.7280   15.7460 H   0  0  0  0  0  0  0  0  0  0  0  0
    4.3300    8.4710   17.1810 H   0  0  0  0  0  0  0  0  0  0  0  0
    2.8830    3.0100   18.0230 C   0  0  0  0  0  0  0  0  0  0  0  0
    3.1770    1.7450   17.6150 F   0  0  0  0  0  0  0  0  0  0  0  0
    1.5750    3.1750   17.7150 F   0  0  0  0  0  0  0  0  0  0  0  0
    2.9840    3.0740   19.8010 Cl  0  0  0  0  0  0  0  0  0  0  0  0
  1  6  1  0  0  0  0
  2  3  1  0  0  0  0
  2  1  2  0  0  0  0
  3  4  2  0  0  0  0
  4  8  1  0  0  0  0
  4  5  1  0  0  0  0
  5  9  1  0  0  0  0
  6  5  2  0  0  0  0
  6 10  1  0  0  0  0
  7  2  1  0  0  0  0
 11 22  1  0  0  0  0
 11 14  1  1  0  0  0
 12 13  1  0  0  0  0
 12 11  1  0  0  0  0
 13 17  1  6  0  0  0
 13 11  1  0  0  0  0
 13  1  1  0  0  0  0
 15 12  1  0  0  0  0
 16 12  1  0  0  0  0
 18 24  1  0  0  0  0
 19 18  1  0  0  0  0
 19 23  1  0  0  0  0
 20 19  2  0  0  0  0
 21 20  1  0  0  0  0
 21 22  2  0  0  0  0
 22 18  1  0  0  0  0
 24 26  1  0  0  0  0
 24 27  1  0  0  0  0
 25 24  1  0  0  0  0
 28 31  1  0  0  0  0
 28  3  1  0  0  0  0
 29 28  1  0  0  0  0
 30 29  2  0  0  0  0
 32 33  2  0  0  0  0
 32 29  1  0  0  0  0
 34 33  1  0  0  0  0
 35 34  1  0  0  0  0
 35 45  1  0  0  0  0
 36 35  2  0  0  0  0
 37 38  2  0  0  0  0
 37 36  1  0  0  0  0
 38 39  1  0  0  0  0
 39 40  1  0  0  0  0
 39 34  2  0  0  0  0
 40 32  1  0  0  0  0
 41 36  1  0  0  0  0
 42 37  1  0  0  0  0
 43 38  1  0  0  0  0
 44 40  1  0  0  0  0
 45 48  1  0  0  0  0
 46 45  1  0  0  0  0
 47 45  1  0  0  0  0
M  END
>  <MODEL>
9

>  <REMARK>
 VINA RESULT:    -8.285      3.144      3.786
 INTER + INTRA:         -10.768
 INTER:                 -10.393
 INTRA:                  -0.375
 UNBOUND:                 0.182
  Name = 
  6 active torsions:
  status: ('A' for Active; 'I' for Inactive)
    1  A    between atoms: C_1  and  N_2
    2  A    between atoms: C_6  and  C_7
    3  A    between atoms: C_9  and  C_10
    4  A    between atoms: C_12  and  N_16
    5  A    between atoms: C_17  and  C_19
    6  A    between atoms: C_22  and  C_28
                            x       y       z     vdW  Elec       q    Type
                         _______ _______ _______ _____ _____    ______ ____

>  <TORSDO>
F 6

$$$$
=
 OpenBabel07192307433D

 48 52  0  0  1  0  0  0  0  0999 V2000
   -0.5810   11.7570   19.7100 C   0  0  0  0  0  0  0  0  0  0  0  0
    0.0150   10.5040   19.5090 C   0  0  0  0  0  0  0  0  0  0  0  0
    1.2210   10.3520   18.8100 C   0  0  0  0  0  0  0  0  0  0  0  0
    1.8580   11.4760   18.2860 C   0  0  0  0  0  0  0  0  0  0  0  0
    1.3260   12.7340   18.5180 C   0  0  0  0  0  0  0  0  0  0  0  0
    0.1240   12.8680   19.2270 C   0  0  0  0  0  0  0  0  0  0  0  0
   -0.5250    9.6320   19.8710 H   0  0  0  0  0  0  0  0  0  0  0  0
    2.7840   11.3920   17.7140 H   0  0  0  0  0  0  0  0  0  0  0  0
    1.8390   13.6240   18.1170 H   0  0  0  0  0  0  0  0  0  0  0  0
   -0.2710   13.8840   19.3560 H   0  0  0  0  0  0  0  0  0  0  0  0
   -2.5410   13.1530   20.8310 C   0  0  2  0  0  0  0  0  0  0  0  0
   -3.1310   12.4240   19.6400 C   0  0  0  0  0  0  0  0  0  0  0  0
   -1.9460   11.8300   20.3730 C   0  0  1  0  0  0  0  0  0  0  0  0
   -1.9810   14.0700   20.5990 H   0  0  0  0  0  0  0  0  0  0  0  0
   -3.0110   12.8940   18.6800 H   0  0  0  0  0  0  0  0  0  0  0  0
   -4.0690   11.8930   19.7020 H   0  0  0  0  0  0  0  0  0  0  0  0
   -2.1750   10.9700   21.0080 H   0  0  0  0  0  0  0  0  0  0  0  0
   -2.7110   13.6370   23.4440 N   0  0  0  0  0  0  0  0  0  0  0  0
   -3.7300   13.5300   24.3360 C   0  0  0  0  0  0  0  0  0  0  0  0
   -4.7820   13.0240   23.7420 N   0  0  0  0  0  0  0  0  0  0  0  0
   -4.4490   12.8090   22.4300 N   0  0  0  0  0  0  0  0  0  0  0  0
   -3.2020   13.1970   22.2480 C   0  0  0  0  0  0  0  0  0  0  0  0
   -3.6620   13.8240   25.3690 H   0  0  0  0  0  0  0  0  0  0  0  0
   -1.4110   14.1570   23.7690 C   0  0  0  0  0  0  0  0  0  0  0  0
   -0.6490   13.5530   23.2770 H   0  0  0  0  0  0  0  0  0  0  0  0
   -1.3360   15.1870   23.4130 H   0  0  0  0  0  0  0  0  0  0  0  0
   -1.2840   14.1600   24.8500 H   0  0  0  0  0  0  0  0  0  0  0  0
    1.8140    9.1070   18.5690 N   0  0  0  0  0  0  0  0  0  0  0  0
    1.9680    8.0820   19.4830 C   0  0  0  0  0  0  0  0  0  0  0  0
    1.6740    8.1340   20.6650 O   0  0  0  0  0  0  0  0  0  0  0  0
    2.2190    8.9220   17.6770 H   0  0  0  0  0  0  0  0  0  0  0  0
    2.5970    6.9130   18.9120 C   0  0  0  0  0  0  0  0  0  0  0  0
    3.5910    6.9120   18.0560 N   0  0  0  0  0  0  0  0  0  0  0  0
    3.8030    5.5960   17.7100 C   0  0  0  0  0  0  0  0  0  0  0  0
    4.7150    5.0450   16.7900 C   0  0  0  0  0  0  0  0  0  0  0  0
    4.6900    3.6380   16.6310 C   0  0  0  0  0  0  0  0  0  0  0  0
    3.8370    2.8170   17.3870 C   0  0  0  0  0  0  0  0  0  0  0  0
    2.9480    3.3690   18.3100 C   0  0  0  0  0  0  0  0  0  0  0  0
    2.9480    4.7640   18.4250 C   0  0  0  0  0  0  0  0  0  0  0  0
    2.1660    5.6250   19.1520 N   0  0  0  0  0  0  0  0  0  0  0  0
    5.3570    3.1680   15.9020 H   0  0  0  0  0  0  0  0  0  0  0  0
    3.8480    1.7340   17.2300 H   0  0  0  0  0  0  0  0  0  0  0  0
    2.2680    2.7360   18.8830 H   0  0  0  0  0  0  0  0  0  0  0  0
    1.4040    5.3770   19.7680 H   0  0  0  0  0  0  0  0  0  0  0  0
    5.6220    5.8970   15.9510 C   0  0  0  0  0  0  0  0  0  0  0  0
    6.4910    6.6350   16.6940 F   0  0  0  0  0  0  0  0  0  0  0  0
    4.9380    6.8070   15.2170 F   0  0  0  0  0  0  0  0  0  0  0  0
    6.5520    4.9220   14.7860 Cl  0  0  0  0  0  0  0  0  0  0  0  0
  1 13  1  0  0  0  0
  2  1  1  0  0  0  0
  2  7  1  0  0  0  0
  3  2  2  0  0  0  0
  4  5  2  0  0  0  0
  4  3  1  0  0  0  0
  5  6  1  0  0  0  0
  6 10  1  0  0  0  0
  6  1  2  0  0  0  0
  8  4  1  0  0  0  0
  9  5  1  0  0  0  0
 11 14  1  6  0  0  0
 11 22  1  0  0  0  0
 12 16  1  0  0  0  0
 12 13  1  0  0  0  0
 12 11  1  0  0  0  0
 13 11  1  0  0  0  0
 13 17  1  1  0  0  0
 15 12  1  0  0  0  0
 18 24  1  0  0  0  0
 18 19  1  0  0  0  0
 19 23  1  0  0  0  0
 20 19  2  0  0  0  0
 21 20  1  0  0  0  0
 22 21  2  0  0  0  0
 22 18  1  0  0  0  0
 24 27  1  0  0  0  0
 25 24  1  0  0  0  0
 26 24  1  0  0  0  0
 28  3  1  0  0  0  0
 28 29  1  0  0  0  0
 29 30  2  0  0  0  0
 31 28  1  0  0  0  0
 32 40  1  0  0  0  0
 32 29  1  0  0  0  0
 33 32  2  0  0  0  0
 34 33  1  0  0  0  0
 34 39  1  0  0  0  0
 35 34  2  0  0  0  0
 36 35  1  0  0  0  0
 36 37  2  0  0  0  0
 37 38  1  0  0  0  0
 38 39  2  0  0  0  0
 38 43  1  0  0  0  0
 39 40  1  0  0  0  0
 40 44  1  0  0  0  0
 41 36  1  0  0  0  0
 42 37  1  0  0  0  0
 45 46  1  0  0  0  0
 45 35  1  0  0  0  0
 47 45  1  0  0  0  0
 48 45  1  0  0  0  0
M  END
>  <MODEL>
10

>  <REMARK>
 VINA RESULT:    -8.217      2.832      3.889
 INTER + INTRA:         -10.678
 INTER:                 -10.354
 INTRA:                  -0.323
 UNBOUND:                 0.182
  Name = 
  6 active torsions:
  status: ('A' for Active; 'I' for Inactive)
    1  A    between atoms: C_1  and  N_2
    2  A    between atoms: C_6  and  C_7
    3  A    between atoms: C_9  and  C_10
    4  A    between atoms: C_12  and  N_16
    5  A    between atoms: C_17  and  C_19
    6  A    between atoms: C_22  and  C_28
                            x       y       z     vdW  Elec       q    Type
                         _______ _______ _______ _____ _____    ______ ____

>  <TORSDO>
F 6

$$$$
=
 OpenBabel07192307433D

 48 52  0  0  1  0  0  0  0  0999 V2000
    0.0320   12.0530   20.9520 C   0  0  0  0  0  0  0  0  0  0  0  0
    0.4990   10.7630   20.6630 C   0  0  0  0  0  0  0  0  0  0  0  0
    1.1670   10.4580   19.4700 C   0  0  0  0  0  0  0  0  0  0  0  0
    1.3770   11.4610   18.5250 C   0  0  0  0  0  0  0  0  0  0  0  0
    0.9810   12.7580   18.8040 C   0  0  0  0  0  0  0  0  0  0  0  0
    0.3220   13.0470   20.0080 C   0  0  0  0  0  0  0  0  0  0  0  0
    0.2730    9.9790   21.3840 H   0  0  0  0  0  0  0  0  0  0  0  0
    1.8710   11.2540   17.5730 H   0  0  0  0  0  0  0  0  0  0  0  0
    1.1620   13.5540   18.0630 H   0  0  0  0  0  0  0  0  0  0  0  0
    0.0000   14.0850   20.1660 H   0  0  0  0  0  0  0  0  0  0  0  0
   -2.2590   11.9020   22.2850 C   0  0  2  0  0  0  0  0  0  0  0  0
   -1.2300   11.1110   23.0680 C   0  0  0  0  0  0  0  0  0  0  0  0
   -0.7870   12.2800   22.2110 C   0  0  1  0  0  0  0  0  0  0  0  0
   -2.6960   11.3890   21.4170 H   0  0  0  0  0  0  0  0  0  0  0  0
   -1.0610   10.0970   22.7530 H   0  0  0  0  0  0  0  0  0  0  0  0
   -1.1230   11.2130   24.1370 H   0  0  0  0  0  0  0  0  0  0  0  0
   -0.5090   13.1810   22.7630 H   0  0  0  0  0  0  0  0  0  0  0  0
   -3.6980   14.1370   22.4550 N   0  0  0  0  0  0  0  0  0  0  0  0
   -4.5960   14.5870   23.3700 C   0  0  0  0  0  0  0  0  0  0  0  0
   -4.6710   13.7390   24.3650 N   0  0  0  0  0  0  0  0  0  0  0  0
   -3.8150   12.7050   24.0890 N   0  0  0  0  0  0  0  0  0  0  0  0
   -3.2410   12.9390   22.9250 C   0  0  0  0  0  0  0  0  0  0  0  0
   -5.1520   15.5030   23.2710 H   0  0  0  0  0  0  0  0  0  0  0  0
   -3.3760   14.8300   21.2380 C   0  0  0  0  0  0  0  0  0  0  0  0
   -3.8100   15.8290   21.2670 H   0  0  0  0  0  0  0  0  0  0  0  0
   -2.2910   14.9140   21.1470 H   0  0  0  0  0  0  0  0  0  0  0  0
   -3.7460   14.2590   20.3880 H   0  0  0  0  0  0  0  0  0  0  0  0
    1.6110    9.1690   19.1490 N   0  0  0  0  0  0  0  0  0  0  0  0
    1.7960    8.1230   20.0310 C   0  0  0  0  0  0  0  0  0  0  0  0
    1.6680    8.1840   21.2430 O   0  0  0  0  0  0  0  0  0  0  0  0
    1.8750    8.9630   18.2100 H   0  0  0  0  0  0  0  0  0  0  0  0
    2.2370    6.9110   19.3780 C   0  0  0  0  0  0  0  0  0  0  0  0
    1.8560    5.6920   19.6770 N   0  0  0  0  0  0  0  0  0  0  0  0
    2.5930    4.8490   18.8760 C   0  0  0  0  0  0  0  0  0  0  0  0
    2.6120    3.4420   18.8310 C   0  0  0  0  0  0  0  0  0  0  0  0
    3.5010    2.8450   17.9030 C   0  0  0  0  0  0  0  0  0  0  0  0
    4.2920    3.6090   17.0300 C   0  0  0  0  0  0  0  0  0  0  0  0
    4.2540    5.0030   17.0680 C   0  0  0  0  0  0  0  0  0  0  0  0
    3.4090    5.5830   18.0210 C   0  0  0  0  0  0  0  0  0  0  0  0
    3.1930    6.8880   18.3850 N   0  0  0  0  0  0  0  0  0  0  0  0
    3.5750    1.7540   17.8560 H   0  0  0  0  0  0  0  0  0  0  0  0
    4.9670    3.1070   16.3310 H   0  0  0  0  0  0  0  0  0  0  0  0
    4.8850    5.6010   16.4070 H   0  0  0  0  0  0  0  0  0  0  0  0
    3.6450    7.7060   18.0000 H   0  0  0  0  0  0  0  0  0  0  0  0
    1.7980    2.5980   19.7660 C   0  0  0  0  0  0  0  0  0  0  0  0
    1.7970    1.2800   19.4250 F   0  0  0  0  0  0  0  0  0  0  0  0
    0.4900    2.9520   19.7720 F   0  0  0  0  0  0  0  0  0  0  0  0
    2.3580    2.7510   21.4510 Cl  0  0  0  0  0  0  0  0  0  0  0  0
  1 13  1  0  0  0  0
  2  1  1  0  0  0  0
  2  7  1  0  0  0  0
  3  2  2  0  0  0  0
  4  5  2  0  0  0  0
  4  3  1  0  0  0  0
  5  6  1  0  0  0  0
  6 10  1  0  0  0  0
  6  1  2  0  0  0  0
  8  4  1  0  0  0  0
  9  5  1  0  0  0  0
 11 14  1  6  0  0  0
 11 22  1  0  0  0  0
 11 12  1  0  0  0  0
 12 16  1  0  0  0  0
 13 11  1  0  0  0  0
 13 17  1  1  0  0  0
 13 12  1  0  0  0  0
 15 12  1  0  0  0  0
 18 22  1  0  0  0  0
 18 19  1  0  0  0  0
 19 20  2  0  0  0  0
 21 20  1  0  0  0  0
 22 21  2  0  0  0  0
 23 19  1  0  0  0  0
 24 25  1  0  0  0  0
 24 18  1  0  0  0  0
 26 24  1  0  0  0  0
 27 24  1  0  0  0  0
 28  3  1  0  0  0  0
 28 29  1  0  0  0  0
 29 30  2  0  0  0  0
 31 28  1  0  0  0  0
 32 33  2  0  0  0  0
 32 29  1  0  0  0  0
 34 33  1  0  0  0  0
 35 34  1  0  0  0  0
 35 45  1  0  0  0  0
 36 35  2  0  0  0  0
 37 38  2  0  0  0  0
 37 36  1  0  0  0  0
 38 39  1  0  0  0  0
 39 40  1  0  0  0  0
 39 34  2  0  0  0  0
 40 32  1  0  0  0  0
 41 36  1  0  0  0  0
 42 37  1  0  0  0  0
 43 38  1  0  0  0  0
 44 40  1  0  0  0  0
 45 47  1  0  0  0  0
 45 48  1  0  0  0  0
 46 45  1  0  0  0  0
M  END
>  <MODEL>
11

>  <REMARK>
 VINA RESULT:    -8.213      3.663      4.543
 INTER + INTRA:         -10.672
 INTER:                 -10.371
 INTRA:                  -0.301
 UNBOUND:                 0.182
  Name = 
  6 active torsions:
  status: ('A' for Active; 'I' for Inactive)
    1  A    between atoms: C_1  and  N_2
    2  A    between atoms: C_6  and  C_7
    3  A    between atoms: C_9  and  C_10
    4  A    between atoms: C_12  and  N_16
    5  A    between atoms: C_17  and  C_19
    6  A    between atoms: C_22  and  C_28
                            x       y       z     vdW  Elec       q    Type
                         _______ _______ _______ _____ _____    ______ ____

>  <TORSDO>
F 6

$$$$
=
 OpenBabel07192307433D

 48 52  0  0  1  0  0  0  0  0999 V2000
    1.1970   12.5890   18.8960 C   0  0  0  0  0  0  0  0  0  0  0  0
    1.8160   11.3470   18.6980 C   0  0  0  0  0  0  0  0  0  0  0  0
    1.0830   10.1700   18.4920 C   0  0  0  0  0  0  0  0  0  0  0  0
   -0.3100   10.2200   18.4870 C   0  0  0  0  0  0  0  0  0  0  0  0
   -0.9510   11.4400   18.6210 C   0  0  0  0  0  0  0  0  0  0  0  0
   -0.2030   12.6090   18.8170 C   0  0  0  0  0  0  0  0  0  0  0  0
    2.9010   11.3160   18.7650 H   0  0  0  0  0  0  0  0  0  0  0  0
   -0.9120    9.3190   18.3560 H   0  0  0  0  0  0  0  0  0  0  0  0
   -2.0530   11.4810   18.6010 H   0  0  0  0  0  0  0  0  0  0  0  0
   -0.7600   13.5460   18.9490 H   0  0  0  0  0  0  0  0  0  0  0  0
    2.9460   14.4580   18.1900 C   0  0  2  0  0  0  0  0  0  0  0  0
    1.7030   15.1690   18.6880 C   0  0  0  0  0  0  0  0  0  0  0  0
    2.0530   13.7990   19.2310 C   0  0  1  0  0  0  0  0  0  0  0  0
    2.8960   14.0740   17.1620 H   0  0  0  0  0  0  0  0  0  0  0  0
    0.9050   15.2970   17.9790 H   0  0  0  0  0  0  0  0  0  0  0  0
    1.7570   16.0020   19.3730 H   0  0  0  0  0  0  0  0  0  0  0  0
    2.4510   13.7900   20.2490 H   0  0  0  0  0  0  0  0  0  0  0  0
    4.9320   15.0690   19.8560 N   0  0  0  0  0  0  0  0  0  0  0  0
    6.2630   15.2670   19.6690 C   0  0  0  0  0  0  0  0  0  0  0  0
    6.5430   15.1900   18.3920 N   0  0  0  0  0  0  0  0  0  0  0  0
    5.3730   14.9230   17.7300 N   0  0  0  0  0  0  0  0  0  0  0  0
    4.4030   14.8330   18.6200 C   0  0  0  0  0  0  0  0  0  0  0  0
    6.9630   15.4530   20.4640 H   0  0  0  0  0  0  0  0  0  0  0  0
    4.2900   15.0870   21.1420 C   0  0  0  0  0  0  0  0  0  0  0  0
    3.6030   15.9310   21.1910 H   0  0  0  0  0  0  0  0  0  0  0  0
    3.7280   14.1600   21.2770 H   0  0  0  0  0  0  0  0  0  0  0  0
    5.0480   15.1430   21.9220 H   0  0  0  0  0  0  0  0  0  0  0  0
    1.6820    8.9150   18.3270 N   0  0  0  0  0  0  0  0  0  0  0  0
    1.9210    7.9840   19.3180 C   0  0  0  0  0  0  0  0  0  0  0  0
    1.7100    8.1440   20.5090 O   0  0  0  0  0  0  0  0  0  0  0  0
    2.0260    8.6520   17.4290 H   0  0  0  0  0  0  0  0  0  0  0  0
    2.5310    6.7740   18.8160 C   0  0  0  0  0  0  0  0  0  0  0  0
    3.5130    6.7080   17.9500 N   0  0  0  0  0  0  0  0  0  0  0  0
    3.7080    5.3710   17.6860 C   0  0  0  0  0  0  0  0  0  0  0  0
    4.6030    4.7530   16.7920 C   0  0  0  0  0  0  0  0  0  0  0  0
    4.5610    3.3380   16.7230 C   0  0  0  0  0  0  0  0  0  0  0  0
    3.7100    2.5770   17.5400 C   0  0  0  0  0  0  0  0  0  0  0  0
    2.8390    3.1950   18.4370 C   0  0  0  0  0  0  0  0  0  0  0  0
    2.8540    4.5950   18.4630 C   0  0  0  0  0  0  0  0  0  0  0  0
    2.0900    5.5090   19.1430 N   0  0  0  0  0  0  0  0  0  0  0  0
    5.2140    2.8160   16.0170 H   0  0  0  0  0  0  0  0  0  0  0  0
    3.7080    1.4860   17.4520 H   0  0  0  0  0  0  0  0  0  0  0  0
    2.1590    2.6070   19.0570 H   0  0  0  0  0  0  0  0  0  0  0  0
    1.3330    5.3090   19.7820 H   0  0  0  0  0  0  0  0  0  0  0  0
    5.5060    5.5390   15.8890 C   0  0  0  0  0  0  0  0  0  0  0  0
    6.5880    6.0500   16.5380 F   0  0  0  0  0  0  0  0  0  0  0  0
    4.8860    6.6190   15.3540 F   0  0  0  0  0  0  0  0  0  0  0  0
    6.0750    4.5640   14.5100 Cl  0  0  0  0  0  0  0  0  0  0  0  0
  1 13  1  0  0  0  0
  2  7  1  0  0  0  0
  2  1  2  0  0  0  0
  3  2  1  0  0  0  0
  4  3  2  0  0  0  0
  4  5  1  0  0  0  0
  5  6  2  0  0  0  0
  6  1  1  0  0  0  0
  6 10  1  0  0  0  0
  8  4  1  0  0  0  0
  9  5  1  0  0  0  0
 11 14  1  6  0  0  0
 11 22  1  0  0  0  0
 11 12  1  0  0  0  0
 11 13  1  0  0  0  0
 12 13  1  0  0  0  0
 12 16  1  0  0  0  0
 13 17  1  1  0  0  0
 15 12  1  0  0  0  0
 18 24  1  0  0  0  0
 19 18  1  0  0  0  0
 19 23  1  0  0  0  0
 20 19  2  0  0  0  0
 21 20  1  0  0  0  0
 21 22  2  0  0  0  0
 22 18  1  0  0  0  0
 24 25  1  0  0  0  0
 24 26  1  0  0  0  0
 24 27  1  0  0  0  0
 28  3  1  0  0  0  0
 28 29  1  0  0  0  0
 29 30  2  0  0  0  0
 31 28  1  0  0  0  0
 32 40  1  0  0  0  0
 32 29  1  0  0  0  0
 33 32  2  0  0  0  0
 34 33  1  0  0  0  0
 34 39  1  0  0  0  0
 35 34  2  0  0  0  0
 36 35  1  0  0  0  0
 36 37  2  0  0  0  0
 37 38  1  0  0  0  0
 38 39  2  0  0  0  0
 38 43  1  0  0  0  0
 39 40  1  0  0  0  0
 40 44  1  0  0  0  0
 41 36  1  0  0  0  0
 42 37  1  0  0  0  0
 45 46  1  0  0  0  0
 45 35  1  0  0  0  0
 47 45  1  0  0  0  0
 48 45  1  0  0  0  0
M  END
>  <MODEL>
12

>  <REMARK>
 VINA RESULT:    -8.198      4.207      5.501
 INTER + INTRA:         -10.652
 INTER:                 -10.401
 INTRA:                  -0.252
 UNBOUND:                 0.182
  Name = 
  6 active torsions:
  status: ('A' for Active; 'I' for Inactive)
    1  A    between atoms: C_1  and  N_2
    2  A    between atoms: C_6  and  C_7
    3  A    between atoms: C_9  and  C_10
    4  A    between atoms: C_12  and  N_16
    5  A    between atoms: C_17  and  C_19
    6  A    between atoms: C_22  and  C_28
                            x       y       z     vdW  Elec       q    Type
                         _______ _______ _______ _____ _____    ______ ____

>  <TORSDO>
F 6

$$$$
=
 OpenBabel07192307433D

 48 52  0  0  1  0  0  0  0  0999 V2000
    1.0170   12.7070   19.0150 C   0  0  0  0  0  0  0  0  0  0  0  0
    1.5870   11.4430   18.8030 C   0  0  0  0  0  0  0  0  0  0  0  0
    0.8080   10.2910   18.6290 C   0  0  0  0  0  0  0  0  0  0  0  0
   -0.5810   10.3870   18.6730 C   0  0  0  0  0  0  0  0  0  0  0  0
   -1.1770   11.6290   18.8210 C   0  0  0  0  0  0  0  0  0  0  0  0
   -0.3830   12.7730   18.9840 C   0  0  0  0  0  0  0  0  0  0  0  0
    2.6720   11.3760   18.8320 H   0  0  0  0  0  0  0  0  0  0  0  0
   -1.2180    9.5060   18.5680 H   0  0  0  0  0  0  0  0  0  0  0  0
   -2.2770   11.7070   18.8390 H   0  0  0  0  0  0  0  0  0  0  0  0
   -0.9040   13.7280   19.1310 H   0  0  0  0  0  0  0  0  0  0  0  0
    2.8010   14.5130   18.2370 C   0  0  2  0  0  0  0  0  0  0  0  0
    1.6010   15.2670   18.7750 C   0  0  0  0  0  0  0  0  0  0  0  0
    1.9240   13.8880   19.3130 C   0  0  1  0  0  0  0  0  0  0  0  0
    2.7010   14.1260   17.2130 H   0  0  0  0  0  0  0  0  0  0  0  0
    0.7830   15.4190   18.0940 H   0  0  0  0  0  0  0  0  0  0  0  0
    1.7070   16.1010   19.4530 H   0  0  0  0  0  0  0  0  0  0  0  0
    2.3580   13.8700   20.3160 H   0  0  0  0  0  0  0  0  0  0  0  0
    4.8520   15.1300   19.8200 N   0  0  0  0  0  0  0  0  0  0  0  0
    6.1870   15.2470   19.5950 C   0  0  0  0  0  0  0  0  0  0  0  0
    6.4330   15.0720   18.3200 N   0  0  0  0  0  0  0  0  0  0  0  0
    5.2370   14.8220   17.7010 N   0  0  0  0  0  0  0  0  0  0  0  0
    4.2840   14.8400   18.6130 C   0  0  0  0  0  0  0  0  0  0  0  0
    6.9130   15.4500   20.3620 H   0  0  0  0  0  0  0  0  0  0  0  0
    4.2410   15.2650   21.1140 C   0  0  0  0  0  0  0  0  0  0  0  0
    3.6460   16.1780   21.1380 H   0  0  0  0  0  0  0  0  0  0  0  0
    3.5890   14.4080   21.2960 H   0  0  0  0  0  0  0  0  0  0  0  0
    5.0160   15.2730   21.8790 H   0  0  0  0  0  0  0  0  0  0  0  0
    1.3590    9.0150   18.4500 N   0  0  0  0  0  0  0  0  0  0  0  0
    1.7760    8.1560   19.4470 C   0  0  0  0  0  0  0  0  0  0  0  0
    1.7950    8.4070   20.6410 O   0  0  0  0  0  0  0  0  0  0  0  0
    1.5260    8.6810   17.5270 H   0  0  0  0  0  0  0  0  0  0  0  0
    2.2740    6.9000   18.9330 C   0  0  0  0  0  0  0  0  0  0  0  0
    1.8630    5.7060   19.2860 N   0  0  0  0  0  0  0  0  0  0  0  0
    2.6710    4.8070   18.6250 C   0  0  0  0  0  0  0  0  0  0  0  0
    2.6900    3.4010   18.6880 C   0  0  0  0  0  0  0  0  0  0  0  0
    3.6600    2.7400   17.8950 C   0  0  0  0  0  0  0  0  0  0  0  0
    4.5310    3.4400   17.0440 C   0  0  0  0  0  0  0  0  0  0  0  0
    4.4940    4.8330   16.9730 C   0  0  0  0  0  0  0  0  0  0  0  0
    3.5640    5.4790   17.7960 C   0  0  0  0  0  0  0  0  0  0  0  0
    3.3180    6.8070   18.0380 N   0  0  0  0  0  0  0  0  0  0  0  0
    3.7370    1.6490   17.9380 H   0  0  0  0  0  0  0  0  0  0  0  0
    5.2670    2.8900   16.4510 H   0  0  0  0  0  0  0  0  0  0  0  0
    5.1840    5.3820   16.3290 H   0  0  0  0  0  0  0  0  0  0  0  0
    3.8050    7.5950   17.6350 H   0  0  0  0  0  0  0  0  0  0  0  0
    1.7910    2.6270   19.6050 C   0  0  0  0  0  0  0  0  0  0  0  0
    1.8040    1.2890   19.3530 F   0  0  0  0  0  0  0  0  0  0  0  0
    0.4910    2.9880   19.4760 F   0  0  0  0  0  0  0  0  0  0  0  0
    2.2080    2.8900   21.3180 Cl  0  0  0  0  0  0  0  0  0  0  0  0
  1 13  1  0  0  0  0
  2  7  1  0  0  0  0
  2  1  2  0  0  0  0
  3  4  2  0  0  0  0
  3  2  1  0  0  0  0
  4  5  1  0  0  0  0
  5  9  1  0  0  0  0
  5  6  2  0  0  0  0
  6  1  1  0  0  0  0
  6 10  1  0  0  0  0
  8  4  1  0  0  0  0
 11 14  1  6  0  0  0
 11 22  1  0  0  0  0
 11 12  1  0  0  0  0
 11 13  1  0  0  0  0
 12 13  1  0  0  0  0
 12 16  1  0  0  0  0
 13 17  1  1  0  0  0
 15 12  1  0  0  0  0
 18 24  1  0  0  0  0
 19 18  1  0  0  0  0
 19 23  1  0  0  0  0
 20 19  2  0  0  0  0
 21 20  1  0  0  0  0
 21 22  2  0  0  0  0
 22 18  1  0  0  0  0
 24 25  1  0  0  0  0
 24 26  1  0  0  0  0
 24 27  1  0  0  0  0
 28  3  1  0  0  0  0
 28 29  1  0  0  0  0
 29 30  2  0  0  0  0
 31 28  1  0  0  0  0
 32 33  2  0  0  0  0
 32 29  1  0  0  0  0
 34 35  1  0  0  0  0
 34 33  1  0  0  0  0
 35 45  1  0  0  0  0
 36 41  1  0  0  0  0
 36 35  2  0  0  0  0
 37 36  1  0  0  0  0
 38 37  2  0  0  0  0
 38 39  1  0  0  0  0
 39 40  1  0  0  0  0
 39 34  2  0  0  0  0
 40 32  1  0  0  0  0
 42 37  1  0  0  0  0
 43 38  1  0  0  0  0
 44 40  1  0  0  0  0
 45 48  1  0  0  0  0
 46 45  1  0  0  0  0
 47 45  1  0  0  0  0
M  END
>  <MODEL>
13

>  <REMARK>
 VINA RESULT:    -8.188      4.574      5.901
 INTER + INTRA:         -10.639
 INTER:                 -10.345
 INTRA:                  -0.294
 UNBOUND:                 0.182
  Name = 
  6 active torsions:
  status: ('A' for Active; 'I' for Inactive)
    1  A    between atoms: C_1  and  N_2
    2  A    between atoms: C_6  and  C_7
    3  A    between atoms: C_9  and  C_10
    4  A    between atoms: C_12  and  N_16
    5  A    between atoms: C_17  and  C_19
    6  A    between atoms: C_22  and  C_28
                            x       y       z     vdW  Elec       q    Type
                         _______ _______ _______ _____ _____    ______ ____

>  <TORSDO>
F 6

$$$$
=
 OpenBabel07192307433D

 48 52  0  0  1  0  0  0  0  0999 V2000
   -0.4660   10.1550   20.6880 C   0  0  0  0  0  0  0  0  0  0  0  0
    0.3850    9.2970   19.9780 C   0  0  0  0  0  0  0  0  0  0  0  0
    1.3300    8.4830   20.6170 C   0  0  0  0  0  0  0  0  0  0  0  0
    1.4440    8.5220   22.0050 C   0  0  0  0  0  0  0  0  0  0  0  0
    0.5780    9.3150   22.7400 C   0  0  0  0  0  0  0  0  0  0  0  0
   -0.3680   10.1160   22.0860 C   0  0  0  0  0  0  0  0  0  0  0  0
    0.3250    9.3230   18.8910 H   0  0  0  0  0  0  0  0  0  0  0  0
    2.1870    7.9220   22.5340 H   0  0  0  0  0  0  0  0  0  0  0  0
    0.6580    9.3320   23.8400 H   0  0  0  0  0  0  0  0  0  0  0  0
   -1.0090   10.7490   22.7130 H   0  0  0  0  0  0  0  0  0  0  0  0
   -1.5590   12.5480   20.3270 C   0  0  2  0  0  0  0  0  0  0  0  0
   -0.8100   12.1980   19.0560 C   0  0  0  0  0  0  0  0  0  0  0  0
   -1.3820   11.0930   19.9190 C   0  0  1  0  0  0  0  0  0  0  0  0
   -0.9430   12.9210   21.1570 H   0  0  0  0  0  0  0  0  0  0  0  0
    0.2460   12.4050   19.0470 H   0  0  0  0  0  0  0  0  0  0  0  0
   -1.2450   12.3400   18.0780 H   0  0  0  0  0  0  0  0  0  0  0  0
   -2.2770   10.6080   19.5210 H   0  0  0  0  0  0  0  0  0  0  0  0
   -4.1270   12.7570   19.6530 N   0  0  0  0  0  0  0  0  0  0  0  0
   -5.1450   13.5180   20.1300 C   0  0  0  0  0  0  0  0  0  0  0  0
   -4.6920   14.3280   21.0550 N   0  0  0  0  0  0  0  0  0  0  0  0
   -3.3510   14.0810   21.1950 N   0  0  0  0  0  0  0  0  0  0  0  0
   -3.0150   13.1180   20.3580 C   0  0  0  0  0  0  0  0  0  0  0  0
   -6.1630   13.4490   19.7890 H   0  0  0  0  0  0  0  0  0  0  0  0
   -4.2810   11.7610   18.6270 C   0  0  0  0  0  0  0  0  0  0  0  0
   -3.4340   11.0770   18.6590 H   0  0  0  0  0  0  0  0  0  0  0  0
   -5.2010   11.2000   18.8060 H   0  0  0  0  0  0  0  0  0  0  0  0
   -4.3630   12.2510   17.6580 H   0  0  0  0  0  0  0  0  0  0  0  0
    2.2120    7.6450   19.9230 N   0  0  0  0  0  0  0  0  0  0  0  0
    2.2580    6.2660   19.9920 C   0  0  0  0  0  0  0  0  0  0  0  0
    1.5810    5.5690   20.7290 O   0  0  0  0  0  0  0  0  0  0  0  0
    2.9210    8.0490   19.3500 H   0  0  0  0  0  0  0  0  0  0  0  0
    3.2680    5.6950   19.1310 C   0  0  0  0  0  0  0  0  0  0  0  0
    4.5640    5.7400   19.3260 N   0  0  0  0  0  0  0  0  0  0  0  0
    5.1440    5.1620   18.2190 C   0  0  0  0  0  0  0  0  0  0  0  0
    6.5050    5.0010   17.8980 C   0  0  0  0  0  0  0  0  0  0  0  0
    6.8000    4.3750   16.6620 C   0  0  0  0  0  0  0  0  0  0  0  0
    5.7920    3.8880   15.8140 C   0  0  0  0  0  0  0  0  0  0  0  0
    4.4460    4.0340   16.1470 C   0  0  0  0  0  0  0  0  0  0  0  0
    4.1640    4.6960   17.3480 C   0  0  0  0  0  0  0  0  0  0  0  0
    2.9820    5.0810   17.9300 N   0  0  0  0  0  0  0  0  0  0  0  0
    7.8430    4.2600   16.3540 H   0  0  0  0  0  0  0  0  0  0  0  0
    6.0640    3.4130   14.8670 H   0  0  0  0  0  0  0  0  0  0  0  0
    3.6590    3.6760   15.4800 H   0  0  0  0  0  0  0  0  0  0  0  0
    2.0530    4.9420   17.5590 H   0  0  0  0  0  0  0  0  0  0  0  0
    7.6030    5.5330   18.7710 C   0  0  0  0  0  0  0  0  0  0  0  0
    8.7430    4.7920   18.6970 F   0  0  0  0  0  0  0  0  0  0  0  0
    7.2690    5.5190   20.0840 F   0  0  0  0  0  0  0  0  0  0  0  0
    7.9970    7.2270   18.3800 Cl  0  0  0  0  0  0  0  0  0  0  0  0
  1  6  1  0  0  0  0
  2  3  1  0  0  0  0
  2  1  2  0  0  0  0
  3  4  2  0  0  0  0
  4  8  1  0  0  0  0
  4  5  1  0  0  0  0
  5  9  1  0  0  0  0
  6 10  1  0  0  0  0
  6  5  2  0  0  0  0
  7  2  1  0  0  0  0
 11 22  1  0  0  0  0
 11 14  1  1  0  0  0
 12 13  1  0  0  0  0
 12 11  1  0  0  0  0
 13 17  1  6  0  0  0
 13 11  1  0  0  0  0
 13  1  1  0  0  0  0
 15 12  1  0  0  0  0
 16 12  1  0  0  0  0
 18 19  1  0  0  0  0
 18 22  1  0  0  0  0
 19 20  2  0  0  0  0
 20 21  1  0  0  0  0
 22 21  2  0  0  0  0
 23 19  1  0  0  0  0
 24 25  1  0  0  0  0
 24 26  1  0  0  0  0
 24 18  1  0  0  0  0
 27 24  1  0  0  0  0
 28 29  1  0  0  0  0
 28  3  1  0  0  0  0
 29 30  2  0  0  0  0
 31 28  1  0  0  0  0
 32 33  2  0  0  0  0
 32 29  1  0  0  0  0
 34 33  1  0  0  0  0
 35 34  1  0  0  0  0
 35 45  1  0  0  0  0
 36 35  2  0  0  0  0
 37 38  2  0  0  0  0
 37 36  1  0  0  0  0
 38 39  1  0  0  0  0
 39 40  1  0  0  0  0
 39 34  2  0  0  0  0
 40 32  1  0  0  0  0
 41 36  1  0  0  0  0
 42 37  1  0  0  0  0
 43 38  1  0  0  0  0
 44 40  1  0  0  0  0
 45 47  1  0  0  0  0
 46 45  1  0  0  0  0
 48 45  1  0  0  0  0
M  END
>  <MODEL>
14

>  <REMARK>
 VINA RESULT:    -8.187      1.197      1.743
 INTER + INTRA:         -10.638
 INTER:                 -10.766
 INTRA:                   0.128
 UNBOUND:                 0.182
  Name = 
  6 active torsions:
  status: ('A' for Active; 'I' for Inactive)
    1  A    between atoms: C_1  and  N_2
    2  A    between atoms: C_6  and  C_7
    3  A    between atoms: C_9  and  C_10
    4  A    between atoms: C_12  and  N_16
    5  A    between atoms: C_17  and  C_19
    6  A    between atoms: C_22  and  C_28
                            x       y       z     vdW  Elec       q    Type
                         _______ _______ _______ _____ _____    ______ ____

>  <TORSDO>
F 6

$$$$
=
 OpenBabel07192307433D

 48 52  0  0  1  0  0  0  0  0999 V2000
    0.2680   12.4900   19.2300 C   0  0  0  0  0  0  0  0  0  0  0  0
    0.5980   11.1310   19.1310 C   0  0  0  0  0  0  0  0  0  0  0  0
    1.7510   10.6860   18.4700 C   0  0  0  0  0  0  0  0  0  0  0  0
    2.6060   11.6150   17.8810 C   0  0  0  0  0  0  0  0  0  0  0  0
    2.3410   12.9680   18.0100 C   0  0  0  0  0  0  0  0  0  0  0  0
    1.1870   13.3960   18.6830 C   0  0  0  0  0  0  0  0  0  0  0  0
   -0.1100   10.4160   19.5440 H   0  0  0  0  0  0  0  0  0  0  0  0
    3.4990   11.3030   17.3350 H   0  0  0  0  0  0  0  0  0  0  0  0
    3.0270   13.7040   17.5570 H   0  0  0  0  0  0  0  0  0  0  0  0
    1.0070   14.4780   18.7300 H   0  0  0  0  0  0  0  0  0  0  0  0
   -1.1230   13.5850   21.2070 C   0  0  2  0  0  0  0  0  0  0  0  0
   -1.4680   14.3430   19.9400 C   0  0  0  0  0  0  0  0  0  0  0  0
   -1.0570   12.8870   19.8570 C   0  0  1  0  0  0  0  0  0  0  0  0
   -0.1720   13.8610   21.6840 H   0  0  0  0  0  0  0  0  0  0  0  0
   -0.7930   15.1280   19.6500 H   0  0  0  0  0  0  0  0  0  0  0  0
   -2.4870   14.5850   19.6790 H   0  0  0  0  0  0  0  0  0  0  0  0
   -1.8700   12.1850   19.6540 H   0  0  0  0  0  0  0  0  0  0  0  0
   -2.1830   11.9570   23.0290 N   0  0  0  0  0  0  0  0  0  0  0  0
   -3.3020   12.0360   23.7950 C   0  0  0  0  0  0  0  0  0  0  0  0
   -3.9750   13.1150   23.4790 N   0  0  0  0  0  0  0  0  0  0  0  0
   -3.2750   13.7620   22.4950 N   0  0  0  0  0  0  0  0  0  0  0  0
   -2.1820   13.0690   22.2370 C   0  0  0  0  0  0  0  0  0  0  0  0
   -3.5740   11.3130   24.5440 H   0  0  0  0  0  0  0  0  0  0  0  0
   -1.2210   10.8930   23.1220 C   0  0  0  0  0  0  0  0  0  0  0  0
   -0.8130   10.6890   22.1320 H   0  0  0  0  0  0  0  0  0  0  0  0
   -0.4090   11.1990   23.7860 H   0  0  0  0  0  0  0  0  0  0  0  0
   -1.6970   10.0120   23.5480 H   0  0  0  0  0  0  0  0  0  0  0  0
    2.0800    9.3320   18.3320 N   0  0  0  0  0  0  0  0  0  0  0  0
    1.9370    8.3510   19.2940 C   0  0  0  0  0  0  0  0  0  0  0  0
    1.5660    8.5310   20.4420 O   0  0  0  0  0  0  0  0  0  0  0  0
    2.5060    9.0160   17.4880 H   0  0  0  0  0  0  0  0  0  0  0  0
    2.3430    7.0450   18.8280 C   0  0  0  0  0  0  0  0  0  0  0  0
    1.8930    5.8950   19.2700 N   0  0  0  0  0  0  0  0  0  0  0  0
    2.6180    4.9200   18.6210 C   0  0  0  0  0  0  0  0  0  0  0  0
    2.5710    3.5210   18.7640 C   0  0  0  0  0  0  0  0  0  0  0  0
    3.4630    2.7670   17.9620 C   0  0  0  0  0  0  0  0  0  0  0  0
    4.3210    3.3720   17.0290 C   0  0  0  0  0  0  0  0  0  0  0  0
    4.3490    4.7590   16.8800 C   0  0  0  0  0  0  0  0  0  0  0  0
    3.4980    5.4970   17.7100 C   0  0  0  0  0  0  0  0  0  0  0  0
    3.3320    6.8480   17.8880 N   0  0  0  0  0  0  0  0  0  0  0  0
    3.4870    1.6780   18.0630 H   0  0  0  0  0  0  0  0  0  0  0  0
    4.9960    2.7520   16.4320 H   0  0  0  0  0  0  0  0  0  0  0  0
    5.0310    5.2350   16.1720 H   0  0  0  0  0  0  0  0  0  0  0  0
    3.8360    7.5860   17.4170 H   0  0  0  0  0  0  0  0  0  0  0  0
    1.6840    2.8460   19.7680 C   0  0  0  0  0  0  0  0  0  0  0  0
    1.5680    1.5070   19.5560 F   0  0  0  0  0  0  0  0  0  0  0  0
    0.4120    3.3120   19.7260 F   0  0  0  0  0  0  0  0  0  0  0  0
    2.2530    3.1130   21.4360 Cl  0  0  0  0  0  0  0  0  0  0  0  0
  1 13  1  0  0  0  0
  2  1  1  0  0  0  0
  2  7  1  0  0  0  0
  3  2  2  0  0  0  0
  4  5  2  0  0  0  0
  4  3  1  0  0  0  0
  5  6  1  0  0  0  0
  6 10  1  0  0  0  0
  6  1  2  0  0  0  0
  8  4  1  0  0  0  0
  9  5  1  0  0  0  0
 11 14  1  1  0  0  0
 11 22  1  0  0  0  0
 12 11  1  0  0  0  0
 13 17  1  6  0  0  0
 13 12  1  0  0  0  0
 13 11  1  0  0  0  0
 15 12  1  0  0  0  0
 16 12  1  0  0  0  0
 18 24  1  0  0  0  0
 18 19  1  0  0  0  0
 19 23  1  0  0  0  0
 20 19  2  0  0  0  0
 21 20  1  0  0  0  0
 22 21  2  0  0  0  0
 22 18  1  0  0  0  0
 24 27  1  0  0  0  0
 24 26  1  0  0  0  0
 25 24  1  0  0  0  0
 28  3  1  0  0  0  0
 28 29  1  0  0  0  0
 29 30  2  0  0  0  0
 31 28  1  0  0  0  0
 32 33  2  0  0  0  0
 32 29  1  0  0  0  0
 34 35  1  0  0  0  0
 34 33  1  0  0  0  0
 35 45  1  0  0  0  0
 36 41  1  0  0  0  0
 36 35  2  0  0  0  0
 37 36  1  0  0  0  0
 38 37  2  0  0  0  0
 38 39  1  0  0  0  0
 39 40  1  0  0  0  0
 39 34  2  0  0  0  0
 40 32  1  0  0  0  0
 42 37  1  0  0  0  0
 43 38  1  0  0  0  0
 44 40  1  0  0  0  0
 45 48  1  0  0  0  0
 46 45  1  0  0  0  0
 47 45  1  0  0  0  0
M  END
>  <MODEL>
15

>  <REMARK>
 VINA RESULT:    -8.154      3.607      4.515
 INTER + INTRA:         -10.594
 INTER:                 -10.034
 INTRA:                  -0.559
 UNBOUND:                 0.182
  Name = 
  6 active torsions:
  status: ('A' for Active; 'I' for Inactive)
    1  A    between atoms: C_1  and  N_2
    2  A    between atoms: C_6  and  C_7
    3  A    between atoms: C_9  and  C_10
    4  A    between atoms: C_12  and  N_16
    5  A    between atoms: C_17  and  C_19
    6  A    between atoms: C_22  and  C_28
                            x       y       z     vdW  Elec       q    Type
                         _______ _______ _______ _____ _____    ______ ____

>  <TORSDO>
F 6

$$$$
=
 OpenBabel07192307433D

 48 52  0  0  1  0  0  0  0  0999 V2000
    2.7130    5.2540   18.6440 C   0  0  0  0  0  0  0  0  0  0  0  0
    2.5310    6.6300   18.8370 C   0  0  0  0  0  0  0  0  0  0  0  0
    1.8970    7.1500   19.9730 C   0  0  0  0  0  0  0  0  0  0  0  0
    1.4200    6.2800   20.9520 C   0  0  0  0  0  0  0  0  0  0  0  0
    1.6360    4.9180   20.8210 C   0  0  0  0  0  0  0  0  0  0  0  0
    2.2810    4.4160   19.6820 C   0  0  0  0  0  0  0  0  0  0  0  0
    2.8540    7.2910   18.0350 H   0  0  0  0  0  0  0  0  0  0  0  0
    0.8970    6.6490   21.8370 H   0  0  0  0  0  0  0  0  0  0  0  0
    1.2730    4.2320   21.6050 H   0  0  0  0  0  0  0  0  0  0  0  0
    2.3990    3.3270   19.6120 H   0  0  0  0  0  0  0  0  0  0  0  0
    4.5940    3.9580   17.2910 C   0  0  2  0  0  0  0  0  0  0  0  0
    3.2710    3.2880   16.9780 C   0  0  0  0  0  0  0  0  0  0  0  0
    3.3020    4.7600   17.3340 C   0  0  1  0  0  0  0  0  0  0  0  0
    5.0530    3.6830   18.2510 H   0  0  0  0  0  0  0  0  0  0  0  0
    2.9250    2.5530   17.6830 H   0  0  0  0  0  0  0  0  0  0  0  0
    2.9870    3.0280   15.9690 H   0  0  0  0  0  0  0  0  0  0  0  0
    3.1500    5.4440   16.4950 H   0  0  0  0  0  0  0  0  0  0  0  0
    6.7280    5.1950   16.2870 N   0  0  0  0  0  0  0  0  0  0  0  0
    7.3650    5.1080   15.0900 C   0  0  0  0  0  0  0  0  0  0  0  0
    6.7130    4.2860   14.3050 N   0  0  0  0  0  0  0  0  0  0  0  0
    5.6340    3.8160   15.0070 N   0  0  0  0  0  0  0  0  0  0  0  0
    5.6560    4.3530   16.2120 C   0  0  0  0  0  0  0  0  0  0  0  0
    8.2680    5.6390   14.8460 H   0  0  0  0  0  0  0  0  0  0  0  0
    7.1820    6.0120   17.3790 C   0  0  0  0  0  0  0  0  0  0  0  0
    7.8230    5.4180   18.0300 H   0  0  0  0  0  0  0  0  0  0  0  0
    7.7540    6.8550   16.9860 H   0  0  0  0  0  0  0  0  0  0  0  0
    6.3210    6.4050   17.9170 H   0  0  0  0  0  0  0  0  0  0  0  0
    1.6750    8.5190   20.1670 N   0  0  0  0  0  0  0  0  0  0  0  0
    1.1610    9.4050   19.2400 C   0  0  0  0  0  0  0  0  0  0  0  0
    0.8880    9.1420   18.0810 O   0  0  0  0  0  0  0  0  0  0  0  0
    1.9460    8.9420   21.0280 H   0  0  0  0  0  0  0  0  0  0  0  0
    1.0300   10.7470   19.7600 C   0  0  0  0  0  0  0  0  0  0  0  0
    0.3110   11.1050   20.7970 N   0  0  0  0  0  0  0  0  0  0  0  0
    0.3980   12.4770   20.8740 C   0  0  0  0  0  0  0  0  0  0  0  0
   -0.2240   13.3680   21.7690 C   0  0  0  0  0  0  0  0  0  0  0  0
    0.0450   14.7470   21.5880 C   0  0  0  0  0  0  0  0  0  0  0  0
    0.9290   15.2110   20.5990 C   0  0  0  0  0  0  0  0  0  0  0  0
    1.5560   14.3210   19.7280 C   0  0  0  0  0  0  0  0  0  0  0  0
    1.2460   12.9650   19.8840 C   0  0  0  0  0  0  0  0  0  0  0  0
    1.6040   11.8510   19.1670 N   0  0  0  0  0  0  0  0  0  0  0  0
   -0.4420   15.4800   22.2370 H   0  0  0  0  0  0  0  0  0  0  0  0
    1.1070   16.2850   20.4920 H   0  0  0  0  0  0  0  0  0  0  0  0
    2.2260   14.6790   18.9430 H   0  0  0  0  0  0  0  0  0  0  0  0
    2.1910   11.8250   18.3440 H   0  0  0  0  0  0  0  0  0  0  0  0
   -1.1910   12.9060   22.8180 C   0  0  0  0  0  0  0  0  0  0  0  0
   -1.2380   13.7360   23.8960 F   0  0  0  0  0  0  0  0  0  0  0  0
   -0.8550   11.6970   23.3300 F   0  0  0  0  0  0  0  0  0  0  0  0
   -2.8390   12.7250   22.1650 Cl  0  0  0  0  0  0  0  0  0  0  0  0
  1  2  2  0  0  0  0
  1  6  1  0  0  0  0
  2  3  1  0  0  0  0
  3 28  1  0  0  0  0
  3  4  2  0  0  0  0
  4  8  1  0  0  0  0
  5  4  1  0  0  0  0
  5  9  1  0  0  0  0
  6  5  2  0  0  0  0
  7  2  1  0  0  0  0
 10  6  1  0  0  0  0
 11 13  1  0  0  0  0
 11 14  1  1  0  0  0
 12 11  1  0  0  0  0
 12 13  1  0  0  0  0
 12 15  1  0  0  0  0
 13 17  1  6  0  0  0
 13  1  1  0  0  0  0
 16 12  1  0  0  0  0
 18 24  1  0  0  0  0
 19 18  1  0  0  0  0
 20 21  1  0  0  0  0
 20 19  2  0  0  0  0
 21 22  2  0  0  0  0
 22 18  1  0  0  0  0
 22 11  1  0  0  0  0
 23 19  1  0  0  0  0
 24 27  1  0  0  0  0
 24 25  1  0  0  0  0
 26 24  1  0  0  0  0
 28 31  1  0  0  0  0
 29 32  1  0  0  0  0
 29 28  1  0  0  0  0
 30 29  2  0  0  0  0
 32 33  2  0  0  0  0
 33 34  1  0  0  0  0
 34 35  1  0  0  0  0
 35 45  1  0  0  0  0
 36 35  2  0  0  0  0
 36 41  1  0  0  0  0
 37 36  1  0  0  0  0
 38 39  1  0  0  0  0
 38 37  2  0  0  0  0
 39 34  2  0  0  0  0
 40 32  1  0  0  0  0
 40 39  1  0  0  0  0
 42 37  1  0  0  0  0
 43 38  1  0  0  0  0
 44 40  1  0  0  0  0
 45 47  1  0  0  0  0
 45 46  1  0  0  0  0
 48 45  1  0  0  0  0
M  END
>  <MODEL>
16

>  <REMARK>
 VINA RESULT:    -8.097      4.873      9.749
 INTER + INTRA:         -10.519
 INTER:                 -10.129
 INTRA:                  -0.390
 UNBOUND:                 0.182
  Name = 
  6 active torsions:
  status: ('A' for Active; 'I' for Inactive)
    1  A    between atoms: C_1  and  N_2
    2  A    between atoms: C_6  and  C_7
    3  A    between atoms: C_9  and  C_10
    4  A    between atoms: C_12  and  N_16
    5  A    between atoms: C_17  and  C_19
    6  A    between atoms: C_22  and  C_28
                            x       y       z     vdW  Elec       q    Type
                         _______ _______ _______ _____ _____    ______ ____

>  <TORSDO>
F 6

$$$$
=
 OpenBabel07192307433D

 48 52  0  0  1  0  0  0  0  0999 V2000
   -0.5970   10.7530   20.5620 C   0  0  0  0  0  0  0  0  0  0  0  0
   -0.0440    9.5870   20.0160 C   0  0  0  0  0  0  0  0  0  0  0  0
    0.8240    8.7590   20.7400 C   0  0  0  0  0  0  0  0  0  0  0  0
    1.1640    9.0980   22.0490 C   0  0  0  0  0  0  0  0  0  0  0  0
    0.5890   10.2120   22.6380 C   0  0  0  0  0  0  0  0  0  0  0  0
   -0.2850   11.0240   21.9020 C   0  0  0  0  0  0  0  0  0  0  0  0
   -0.2720    9.3690   18.9740 H   0  0  0  0  0  0  0  0  0  0  0  0
    1.8580    8.4910   22.6340 H   0  0  0  0  0  0  0  0  0  0  0  0
    0.8460   10.4700   23.6790 H   0  0  0  0  0  0  0  0  0  0  0  0
   -0.6880   11.9120   22.4050 H   0  0  0  0  0  0  0  0  0  0  0  0
   -2.9500   11.5410   19.6170 C   0  0  2  0  0  0  0  0  0  0  0  0
   -2.3070   12.7420   20.2830 C   0  0  0  0  0  0  0  0  0  0  0  0
   -1.4340   11.6610   19.6770 C   0  0  1  0  0  0  0  0  0  0  0  0
   -3.4290   10.8200   20.2940 H   0  0  0  0  0  0  0  0  0  0  0  0
   -2.4280   12.8240   21.3480 H   0  0  0  0  0  0  0  0  0  0  0  0
   -2.2890   13.7140   19.8140 H   0  0  0  0  0  0  0  0  0  0  0  0
   -0.9500   11.9290   18.7350 H   0  0  0  0  0  0  0  0  0  0  0  0
   -3.2830   10.9450   17.0430 N   0  0  0  0  0  0  0  0  0  0  0  0
   -4.2540   11.2540   16.1440 C   0  0  0  0  0  0  0  0  0  0  0  0
   -5.1290   12.0550   16.7010 N   0  0  0  0  0  0  0  0  0  0  0  0
   -4.7300   12.2620   17.9960 N   0  0  0  0  0  0  0  0  0  0  0  0
   -3.6230   11.5760   18.2050 C   0  0  0  0  0  0  0  0  0  0  0  0
   -4.2830   10.8850   15.1340 H   0  0  0  0  0  0  0  0  0  0  0  0
   -2.1680   10.0850   16.7560 C   0  0  0  0  0  0  0  0  0  0  0  0
   -2.5140    9.2290   16.1760 H   0  0  0  0  0  0  0  0  0  0  0  0
   -1.4280   10.6370   16.1720 H   0  0  0  0  0  0  0  0  0  0  0  0
   -1.7030    9.7730   17.6900 H   0  0  0  0  0  0  0  0  0  0  0  0
    1.4130    7.6090   20.2010 N   0  0  0  0  0  0  0  0  0  0  0  0
    2.2000    7.5450   19.0670 C   0  0  0  0  0  0  0  0  0  0  0  0
    2.4430    8.4770   18.3190 O   0  0  0  0  0  0  0  0  0  0  0  0
    1.2300    6.7230   20.6210 H   0  0  0  0  0  0  0  0  0  0  0  0
    2.6780    6.2100   18.7910 C   0  0  0  0  0  0  0  0  0  0  0  0
    3.6520    5.8940   17.9710 N   0  0  0  0  0  0  0  0  0  0  0  0
    3.7030    4.5180   17.9420 C   0  0  0  0  0  0  0  0  0  0  0  0
    4.5300    3.6660   17.1860 C   0  0  0  0  0  0  0  0  0  0  0  0
    4.3370    2.2730   17.3570 C   0  0  0  0  0  0  0  0  0  0  0  0
    3.4050    1.7560   18.2720 C   0  0  0  0  0  0  0  0  0  0  0  0
    2.6020    2.6070   19.0310 C   0  0  0  0  0  0  0  0  0  0  0  0
    2.7670    3.9800   18.8200 C   0  0  0  0  0  0  0  0  0  0  0  0
    2.1030    5.0730   19.3180 N   0  0  0  0  0  0  0  0  0  0  0  0
    4.9330    1.5710   16.7650 H   0  0  0  0  0  0  0  0  0  0  0  0
    3.2860    0.6720   18.3700 H   0  0  0  0  0  0  0  0  0  0  0  0
    1.8600    2.2080   19.7270 H   0  0  0  0  0  0  0  0  0  0  0  0
    1.3260    5.0650   19.9640 H   0  0  0  0  0  0  0  0  0  0  0  0
    5.5170    4.1870   16.1840 C   0  0  0  0  0  0  0  0  0  0  0  0
    4.9570    5.0470   15.2890 F   0  0  0  0  0  0  0  0  0  0  0  0
    6.0490    3.2000   15.4250 F   0  0  0  0  0  0  0  0  0  0  0  0
    6.8930    5.0000   16.9730 Cl  0  0  0  0  0  0  0  0  0  0  0  0
  1  6  1  0  0  0  0
  2  1  2  0  0  0  0
  2  3  1  0  0  0  0
  3  4  2  0  0  0  0
  4  8  1  0  0  0  0
  4  5  1  0  0  0  0
  5  9  1  0  0  0  0
  6 10  1  0  0  0  0
  6  5  2  0  0  0  0
  7  2  1  0  0  0  0
 11 13  1  0  0  0  0
 11 12  1  0  0  0  0
 11 14  1  1  0  0  0
 12 15  1  0  0  0  0
 13 17  1  6  0  0  0
 13 12  1  0  0  0  0
 13  1  1  0  0  0  0
 16 12  1  0  0  0  0
 18 22  1  0  0  0  0
 19 20  2  0  0  0  0
 19 18  1  0  0  0  0
 20 21  1  0  0  0  0
 21 22  2  0  0  0  0
 22 11  1  0  0  0  0
 23 19  1  0  0  0  0
 24 18  1  0  0  0  0
 24 27  1  0  0  0  0
 25 24  1  0  0  0  0
 26 24  1  0  0  0  0
 28 31  1  0  0  0  0
 28  3  1  0  0  0  0
 29 28  1  0  0  0  0
 30 29  2  0  0  0  0
 32 29  1  0  0  0  0
 32 40  1  0  0  0  0
 33 32  2  0  0  0  0
 34 33  1  0  0  0  0
 34 39  1  0  0  0  0
 35 36  1  0  0  0  0
 35 34  2  0  0  0  0
 36 37  2  0  0  0  0
 37 42  1  0  0  0  0
 37 38  1  0  0  0  0
 38 43  1  0  0  0  0
 39 38  2  0  0  0  0
 39 40  1  0  0  0  0
 40 44  1  0  0  0  0
 41 36  1  0  0  0  0
 45 48  1  0  0  0  0
 45 35  1  0  0  0  0
 46 45  1  0  0  0  0
 47 45  1  0  0  0  0
M  END
>  <MODEL>
17

>  <REMARK>
 VINA RESULT:    -8.045      1.858      2.215
 INTER + INTRA:         -10.450
 INTER:                  -9.922
 INTRA:                  -0.528
 UNBOUND:                 0.182
  Name = 
  6 active torsions:
  status: ('A' for Active; 'I' for Inactive)
    1  A    between atoms: C_1  and  N_2
    2  A    between atoms: C_6  and  C_7
    3  A    between atoms: C_9  and  C_10
    4  A    between atoms: C_12  and  N_16
    5  A    between atoms: C_17  and  C_19
    6  A    between atoms: C_22  and  C_28
                            x       y       z     vdW  Elec       q    Type
                         _______ _______ _______ _____ _____    ______ ____

>  <TORSDO>
F 6

$$$$
=
 OpenBabel07192307433D

 48 52  0  0  1  0  0  0  0  0999 V2000
   -0.5560   10.5980   20.5760 C   0  0  0  0  0  0  0  0  0  0  0  0
    0.2140    9.7090   19.8140 C   0  0  0  0  0  0  0  0  0  0  0  0
    1.1690    8.8600   20.3930 C   0  0  0  0  0  0  0  0  0  0  0  0
    1.3730    8.8950   21.7710 C   0  0  0  0  0  0  0  0  0  0  0  0
    0.5870    9.7200   22.5590 C   0  0  0  0  0  0  0  0  0  0  0  0
   -0.3700   10.5550   21.9640 C   0  0  0  0  0  0  0  0  0  0  0  0
    0.0850    9.7370   18.7340 H   0  0  0  0  0  0  0  0  0  0  0  0
    2.1260    8.2680   22.2520 H   0  0  0  0  0  0  0  0  0  0  0  0
    0.7380    9.7350   23.6510 H   0  0  0  0  0  0  0  0  0  0  0  0
   -0.9440   11.2120   22.6300 H   0  0  0  0  0  0  0  0  0  0  0  0
   -2.9790   11.3070   19.7530 C   0  0  2  0  0  0  0  0  0  0  0  0
   -2.4660   12.4150   20.6510 C   0  0  0  0  0  0  0  0  0  0  0  0
   -1.4850   11.5690   19.8660 C   0  0  1  0  0  0  0  0  0  0  0  0
   -3.3800   10.4220   20.2680 H   0  0  0  0  0  0  0  0  0  0  0  0
   -2.5960   12.2760   21.7090 H   0  0  0  0  0  0  0  0  0  0  0  0
   -2.5510   13.4570   20.3790 H   0  0  0  0  0  0  0  0  0  0  0  0
   -1.0310   12.0630   19.0030 H   0  0  0  0  0  0  0  0  0  0  0  0
   -3.3290   11.0670   17.1240 N   0  0  0  0  0  0  0  0  0  0  0  0
   -4.2920   11.5160   16.2780 C   0  0  0  0  0  0  0  0  0  0  0  0
   -5.1470   12.2560   16.9390 N   0  0  0  0  0  0  0  0  0  0  0  0
   -4.7420   12.2800   18.2480 N   0  0  0  0  0  0  0  0  0  0  0  0
   -3.6520   11.5450   18.3610 C   0  0  0  0  0  0  0  0  0  0  0  0
   -4.3310   11.2850   15.2280 H   0  0  0  0  0  0  0  0  0  0  0  0
   -2.2360   10.2250   16.7200 C   0  0  0  0  0  0  0  0  0  0  0  0
   -2.0720   10.3360   15.6490 H   0  0  0  0  0  0  0  0  0  0  0  0
   -1.3320   10.5280   17.2530 H   0  0  0  0  0  0  0  0  0  0  0  0
   -2.4580    9.1930   16.9860 H   0  0  0  0  0  0  0  0  0  0  0  0
    1.9720    7.9900   19.6450 N   0  0  0  0  0  0  0  0  0  0  0  0
    2.2450    8.0830   18.2950 C   0  0  0  0  0  0  0  0  0  0  0  0
    1.7660    8.9020   17.5280 O   0  0  0  0  0  0  0  0  0  0  0  0
    2.3630    7.1860   20.0860 H   0  0  0  0  0  0  0  0  0  0  0  0
    3.1330    7.0420   17.8290 C   0  0  0  0  0  0  0  0  0  0  0  0
    2.9210    5.7510   17.9190 N   0  0  0  0  0  0  0  0  0  0  0  0
    4.0590    5.1380   17.4430 C   0  0  0  0  0  0  0  0  0  0  0  0
    4.3760    3.7690   17.3660 C   0  0  0  0  0  0  0  0  0  0  0  0
    5.6490    3.4360   16.8400 C   0  0  0  0  0  0  0  0  0  0  0  0
    6.5390    4.4150   16.3680 C   0  0  0  0  0  0  0  0  0  0  0  0
    6.2100    5.7690   16.4300 C   0  0  0  0  0  0  0  0  0  0  0  0
    4.9700    6.0890   16.9960 C   0  0  0  0  0  0  0  0  0  0  0  0
    4.3760    7.2910   17.2870 N   0  0  0  0  0  0  0  0  0  0  0  0
    5.9530    2.3870   16.7920 H   0  0  0  0  0  0  0  0  0  0  0  0
    7.5130    4.1150   15.9710 H   0  0  0  0  0  0  0  0  0  0  0  0
    6.9090    6.5340   16.0850 H   0  0  0  0  0  0  0  0  0  0  0  0
    4.7650    8.2110   17.1320 H   0  0  0  0  0  0  0  0  0  0  0  0
    3.4570    2.7020   17.8850 C   0  0  0  0  0  0  0  0  0  0  0  0
    3.8770    1.4450   17.5730 F   0  0  0  0  0  0  0  0  0  0  0  0
    2.2140    2.7910   17.3540 F   0  0  0  0  0  0  0  0  0  0  0  0
    3.2490    2.8120   19.6520 Cl  0  0  0  0  0  0  0  0  0  0  0  0
  1  6  1  0  0  0  0
  2  3  1  0  0  0  0
  2  1  2  0  0  0  0
  3  4  2  0  0  0  0
  4  8  1  0  0  0  0
  4  5  1  0  0  0  0
  5  9  1  0  0  0  0
  6  5  2  0  0  0  0
  6 10  1  0  0  0  0
  7  2  1  0  0  0  0
 11 13  1  0  0  0  0
 11 14  1  1  0  0  0
 11 12  1  0  0  0  0
 12 15  1  0  0  0  0
 13 17  1  6  0  0  0
 13  1  1  0  0  0  0
 13 12  1  0  0  0  0
 16 12  1  0  0  0  0
 18 22  1  0  0  0  0
 19 20  2  0  0  0  0
 19 18  1  0  0  0  0
 20 21  1  0  0  0  0
 21 22  2  0  0  0  0
 22 11  1  0  0  0  0
 23 19  1  0  0  0  0
 24 27  1  0  0  0  0
 24 18  1  0  0  0  0
 24 26  1  0  0  0  0
 25 24  1  0  0  0  0
 28 31  1  0  0  0  0
 28  3  1  0  0  0  0
 29 28  1  0  0  0  0
 30 29  2  0  0  0  0
 32 33  2  0  0  0  0
 32 29  1  0  0  0  0
 34 33  1  0  0  0  0
 35 34  1  0  0  0  0
 35 45  1  0  0  0  0
 36 35  2  0  0  0  0
 37 38  2  0  0  0  0
 37 36  1  0  0  0  0
 38 39  1  0  0  0  0
 39 40  1  0  0  0  0
 39 34  2  0  0  0  0
 40 32  1  0  0  0  0
 41 36  1  0  0  0  0
 42 37  1  0  0  0  0
 43 38  1  0  0  0  0
 44 40  1  0  0  0  0
 45 48  1  0  0  0  0
 46 45  1  0  0  0  0
 47 45  1  0  0  0  0
M  END
>  <MODEL>
18

>  <REMARK>
 VINA RESULT:    -8.034      2.323      2.584
 INTER + INTRA:         -10.435
 INTER:                 -10.113
 INTRA:                  -0.322
 UNBOUND:                 0.182
  Name = 
  6 active torsions:
  status: ('A' for Active; 'I' for Inactive)
    1  A    between atoms: C_1  and  N_2
    2  A    between atoms: C_6  and  C_7
    3  A    between atoms: C_9  and  C_10
    4  A    between atoms: C_12  and  N_16
    5  A    between atoms: C_17  and  C_19
    6  A    between atoms: C_22  and  C_28
                            x       y       z     vdW  Elec       q    Type
                         _______ _______ _______ _____ _____    ______ ____

>  <TORSDO>
F 6

$$$$
=
 OpenBabel07192307433D

 48 52  0  0  1  0  0  0  0  0999 V2000
   -0.3020   12.2030   19.7930 C   0  0  0  0  0  0  0  0  0  0  0  0
   -0.0120   10.8370   19.9180 C   0  0  0  0  0  0  0  0  0  0  0  0
    1.0980   10.2470   19.2990 C   0  0  0  0  0  0  0  0  0  0  0  0
    1.9500   11.0330   18.5230 C   0  0  0  0  0  0  0  0  0  0  0  0
    1.7250   12.3960   18.4280 C   0  0  0  0  0  0  0  0  0  0  0  0
    0.6150   12.9710   19.0620 C   0  0  0  0  0  0  0  0  0  0  0  0
   -0.7190   10.2270   20.4770 H   0  0  0  0  0  0  0  0  0  0  0  0
    2.8090   10.6020   18.0040 H   0  0  0  0  0  0  0  0  0  0  0  0
    2.4080   13.0190   17.8270 H   0  0  0  0  0  0  0  0  0  0  0  0
    0.4640   14.0500   18.9290 H   0  0  0  0  0  0  0  0  0  0  0  0
   -1.5840   13.5650   21.6780 C   0  0  2  0  0  0  0  0  0  0  0  0
   -1.8960   14.2280   20.3510 C   0  0  0  0  0  0  0  0  0  0  0  0
   -1.5870   12.7460   20.3950 C   0  0  1  0  0  0  0  0  0  0  0  0
   -0.6090   13.8150   22.1180 H   0  0  0  0  0  0  0  0  0  0  0  0
   -1.1740   14.9350   19.9840 H   0  0  0  0  0  0  0  0  0  0  0  0
   -2.9010   14.5160   20.0780 H   0  0  0  0  0  0  0  0  0  0  0  0
   -2.4490   12.0860   20.2650 H   0  0  0  0  0  0  0  0  0  0  0  0
   -3.7410   13.9260   23.1960 N   0  0  0  0  0  0  0  0  0  0  0  0
   -4.3870   13.1270   24.0850 C   0  0  0  0  0  0  0  0  0  0  0  0
   -3.7300   12.0010   24.2200 N   0  0  0  0  0  0  0  0  0  0  0  0
   -2.6400   12.0600   23.3920 N   0  0  0  0  0  0  0  0  0  0  0  0
   -2.6590   13.2180   22.7600 C   0  0  0  0  0  0  0  0  0  0  0  0
   -5.2990   13.3960   24.5880 H   0  0  0  0  0  0  0  0  0  0  0  0
   -4.1970   15.2360   22.8170 C   0  0  0  0  0  0  0  0  0  0  0  0
   -3.9750   15.9400   23.6180 H   0  0  0  0  0  0  0  0  0  0  0  0
   -3.6750   15.5500   21.9100 H   0  0  0  0  0  0  0  0  0  0  0  0
   -5.2630   15.1990   22.6000 H   0  0  0  0  0  0  0  0  0  0  0  0
    1.3850    8.8790   19.3830 N   0  0  0  0  0  0  0  0  0  0  0  0
    1.5770    8.1530   20.5420 C   0  0  0  0  0  0  0  0  0  0  0  0
    1.5970    8.6100   21.6730 O   0  0  0  0  0  0  0  0  0  0  0  0
    1.5190    8.3550   18.5460 H   0  0  0  0  0  0  0  0  0  0  0  0
    1.8310    6.7520   20.2900 C   0  0  0  0  0  0  0  0  0  0  0  0
    2.7360    6.2670   19.4740 N   0  0  0  0  0  0  0  0  0  0  0  0
    2.5620    4.9010   19.4710 C   0  0  0  0  0  0  0  0  0  0  0  0
    3.2360    3.9120   18.7290 C   0  0  0  0  0  0  0  0  0  0  0  0
    2.8200    2.5730   18.9260 C   0  0  0  0  0  0  0  0  0  0  0  0
    1.8200    2.2310   19.8520 C   0  0  0  0  0  0  0  0  0  0  0  0
    1.1700    3.2150   20.5970 C   0  0  0  0  0  0  0  0  0  0  0  0
    1.5550    4.5390   20.3600 C   0  0  0  0  0  0  0  0  0  0  0  0
    1.0800    5.7340   20.8390 N   0  0  0  0  0  0  0  0  0  0  0  0
    3.2900    1.7730   18.3470 H   0  0  0  0  0  0  0  0  0  0  0  0
    1.5270    1.1830   19.9710 H   0  0  0  0  0  0  0  0  0  0  0  0
    0.3760    2.9550   21.3010 H   0  0  0  0  0  0  0  0  0  0  0  0
    0.3160    5.8650   21.4860 H   0  0  0  0  0  0  0  0  0  0  0  0
    4.2890    4.2480   17.7160 C   0  0  0  0  0  0  0  0  0  0  0  0
    3.9040    5.2330   16.8590 F   0  0  0  0  0  0  0  0  0  0  0  0
    4.5880    3.1950   16.9170 F   0  0  0  0  0  0  0  0  0  0  0  0
    5.8200    4.7310   18.4890 Cl  0  0  0  0  0  0  0  0  0  0  0  0
  1  2  1  0  0  0  0
  1 13  1  0  0  0  0
  2  7  1  0  0  0  0
  3 28  1  0  0  0  0
  3  2  2  0  0  0  0
  4  3  1  0  0  0  0
  5  4  2  0  0  0  0
  5  6  1  0  0  0  0
  6  1  2  0  0  0  0
  8  4  1  0  0  0  0
  9  5  1  0  0  0  0
 10  6  1  0  0  0  0
 11 14  1  1  0  0  0
 11 22  1  0  0  0  0
 12 13  1  0  0  0  0
 12 11  1  0  0  0  0
 13 17  1  6  0  0  0
 13 11  1  0  0  0  0
 15 12  1  0  0  0  0
 16 12  1  0  0  0  0
 18 19  1  0  0  0  0
 19 20  2  0  0  0  0
 19 23  1  0  0  0  0
 21 20  1  0  0  0  0
 22 18  1  0  0  0  0
 22 21  2  0  0  0  0
 24 18  1  0  0  0  0
 24 25  1  0  0  0  0
 26 24  1  0  0  0  0
 27 24  1  0  0  0  0
 28 29  1  0  0  0  0
 29 30  2  0  0  0  0
 31 28  1  0  0  0  0
 32 29  1  0  0  0  0
 32 40  1  0  0  0  0
 33 32  2  0  0  0  0
 34 33  1  0  0  0  0
 34 39  1  0  0  0  0
 35 36  1  0  0  0  0
 35 34  2  0  0  0  0
 36 37  2  0  0  0  0
 37 42  1  0  0  0  0
 37 38  1  0  0  0  0
 38 43  1  0  0  0  0
 39 38  2  0  0  0  0
 39 40  1  0  0  0  0
 40 44  1  0  0  0  0
 41 36  1  0  0  0  0
 45 48  1  0  0  0  0
 45 35  1  0  0  0  0
 46 45  1  0  0  0  0
 47 45  1  0  0  0  0
M  END
>  <MODEL>
19

>  <REMARK>
 VINA RESULT:    -7.977      3.103      4.415
 INTER + INTRA:         -10.360
 INTER:                  -9.807
 INTRA:                  -0.553
 UNBOUND:                 0.182
  Name = 
  6 active torsions:
  status: ('A' for Active; 'I' for Inactive)
    1  A    between atoms: C_1  and  N_2
    2  A    between atoms: C_6  and  C_7
    3  A    between atoms: C_9  and  C_10
    4  A    between atoms: C_12  and  N_16
    5  A    between atoms: C_17  and  C_19
    6  A    between atoms: C_22  and  C_28
                            x       y       z     vdW  Elec       q    Type
                         _______ _______ _______ _____ _____    ______ ____

>  <TORSDO>
F 6

$$$$
=
 OpenBabel07192307433D

 48 52  0  0  1  0  0  0  0  0999 V2000
    4.3960    4.2360   17.1930 C   0  0  0  0  0  0  0  0  0  0  0  0
    3.7680    5.4730   17.3900 C   0  0  0  0  0  0  0  0  0  0  0  0
    2.6160    5.6110   18.1770 C   0  0  0  0  0  0  0  0  0  0  0  0
    2.0610    4.4870   18.7850 C   0  0  0  0  0  0  0  0  0  0  0  0
    2.6910    3.2590   18.6590 C   0  0  0  0  0  0  0  0  0  0  0  0
    3.8480    3.1410   17.8760 C   0  0  0  0  0  0  0  0  0  0  0  0
    4.1790    6.3300   16.8600 H   0  0  0  0  0  0  0  0  0  0  0  0
    1.1500    4.5530   19.3830 H   0  0  0  0  0  0  0  0  0  0  0  0
    2.2600    2.3730   19.1540 H   0  0  0  0  0  0  0  0  0  0  0  0
    4.2900    2.1410   17.7820 H   0  0  0  0  0  0  0  0  0  0  0  0
    5.6740    5.0470   15.0110 C   0  0  2  0  0  0  0  0  0  0  0  0
    6.6150    5.2420   16.1830 C   0  0  0  0  0  0  0  0  0  0  0  0
    5.5700    4.1460   16.2330 C   0  0  1  0  0  0  0  0  0  0  0  0
    4.9040    5.8200   14.8840 H   0  0  0  0  0  0  0  0  0  0  0  0
    6.4970    6.1470   16.7500 H   0  0  0  0  0  0  0  0  0  0  0  0
    7.6510    4.9380   16.1410 H   0  0  0  0  0  0  0  0  0  0  0  0
    5.9540    3.1310   16.0980 H   0  0  0  0  0  0  0  0  0  0  0  0
    7.1670    4.6020   12.8520 N   0  0  0  0  0  0  0  0  0  0  0  0
    7.0820    3.6950   11.8430 C   0  0  0  0  0  0  0  0  0  0  0  0
    5.9970    2.9760   11.9910 N   0  0  0  0  0  0  0  0  0  0  0  0
    5.3660    3.4120   13.1270 N   0  0  0  0  0  0  0  0  0  0  0  0
    6.0850    4.3830   13.6550 C   0  0  0  0  0  0  0  0  0  0  0  0
    7.8070    3.5980   11.0550 H   0  0  0  0  0  0  0  0  0  0  0  0
    8.2400    5.5480   12.9910 C   0  0  0  0  0  0  0  0  0  0  0  0
    9.1850    5.0110   13.0750 H   0  0  0  0  0  0  0  0  0  0  0  0
    8.2710    6.1910   12.1080 H   0  0  0  0  0  0  0  0  0  0  0  0
    8.0580    6.1740   13.8630 H   0  0  0  0  0  0  0  0  0  0  0  0
    1.9550    6.8320   18.3580 N   0  0  0  0  0  0  0  0  0  0  0  0
    2.4030    8.0750   17.9540 C   0  0  0  0  0  0  0  0  0  0  0  0
    3.4840    8.3070   17.4390 O   0  0  0  0  0  0  0  0  0  0  0  0
    1.0970    6.8530   18.8660 H   0  0  0  0  0  0  0  0  0  0  0  0
    1.4720    9.1350   18.2670 C   0  0  0  0  0  0  0  0  0  0  0  0
    0.2220    9.2030   17.8760 N   0  0  0  0  0  0  0  0  0  0  0  0
   -0.2560   10.4170   18.3170 C   0  0  0  0  0  0  0  0  0  0  0  0
   -1.5190   11.0090   18.1240 C   0  0  0  0  0  0  0  0  0  0  0  0
   -1.7150   12.2930   18.6890 C   0  0  0  0  0  0  0  0  0  0  0  0
   -0.7220   12.9320   19.4500 C   0  0  0  0  0  0  0  0  0  0  0  0
    0.5200   12.3320   19.6530 C   0  0  0  0  0  0  0  0  0  0  0  0
    0.7200   11.0840   19.0510 C   0  0  0  0  0  0  0  0  0  0  0  0
    1.8200   10.2670   18.9720 N   0  0  0  0  0  0  0  0  0  0  0  0
   -2.6680   12.8080   18.5360 H   0  0  0  0  0  0  0  0  0  0  0  0
   -0.9150   13.9260   19.8670 H   0  0  0  0  0  0  0  0  0  0  0  0
    1.3020   12.8350   20.2260 H   0  0  0  0  0  0  0  0  0  0  0  0
    2.7350   10.4460   19.3620 H   0  0  0  0  0  0  0  0  0  0  0  0
   -2.5890   10.3630   17.2950 C   0  0  0  0  0  0  0  0  0  0  0  0
   -3.0610    9.2110   17.8460 F   0  0  0  0  0  0  0  0  0  0  0  0
   -2.1420   10.0000   16.0690 F   0  0  0  0  0  0  0  0  0  0  0  0
   -3.9620   11.4650   17.0140 Cl  0  0  0  0  0  0  0  0  0  0  0  0
  1  2  2  0  0  0  0
  1  6  1  0  0  0  0
  2  3  1  0  0  0  0
  3 28  1  0  0  0  0
  3  4  2  0  0  0  0
  4  8  1  0  0  0  0
  5  4  1  0  0  0  0
  5  9  1  0  0  0  0
  6  5  2  0  0  0  0
  7  2  1  0  0  0  0
 10  6  1  0  0  0  0
 11 14  1  6  0  0  0
 11 12  1  0  0  0  0
 11 13  1  0  0  0  0
 12 13  1  0  0  0  0
 12 15  1  0  0  0  0
 13 17  1  6  0  0  0
 13  1  1  0  0  0  0
 16 12  1  0  0  0  0
 18 24  1  0  0  0  0
 18 22  1  0  0  0  0
 19 20  2  0  0  0  0
 19 18  1  0  0  0  0
 20 21  1  0  0  0  0
 21 22  2  0  0  0  0
 22 11  1  0  0  0  0
 23 19  1  0  0  0  0
 24 25  1  0  0  0  0
 24 27  1  0  0  0  0
 26 24  1  0  0  0  0
 28 31  1  0  0  0  0
 29 32  1  0  0  0  0
 29 28  1  0  0  0  0
 30 29  2  0  0  0  0
 32 40  1  0  0  0  0
 33 32  2  0  0  0  0
 33 34  1  0  0  0  0
 34 39  1  0  0  0  0
 35 34  2  0  0  0  0
 35 36  1  0  0  0  0
 36 37  2  0  0  0  0
 37 38  1  0  0  0  0
 37 42  1  0  0  0  0
 38 43  1  0  0  0  0
 39 38  2  0  0  0  0
 40 39  1  0  0  0  0
 40 44  1  0  0  0  0
 41 36  1  0  0  0  0
 45 46  1  0  0  0  0
 45 35  1  0  0  0  0
 47 45  1  0  0  0  0
 48 45  1  0  0  0  0
M  END
>  <MODEL>
20

>  <REMARK>
 VINA RESULT:    -7.959      4.612      9.934
 INTER + INTRA:         -10.337
 INTER:                 -10.521
 INTRA:                   0.184
 UNBOUND:                 0.182
  Name = 
  6 active torsions:
  status: ('A' for Active; 'I' for Inactive)
    1  A    between atoms: C_1  and  N_2
    2  A    between atoms: C_6  and  C_7
    3  A    between atoms: C_9  and  C_10
    4  A    between atoms: C_12  and  N_16
    5  A    between atoms: C_17  and  C_19
    6  A    between atoms: C_22  and  C_28
                            x       y       z     vdW  Elec       q    Type
                         _______ _______ _______ _____ _____    ______ ____

>  <TORSDO>
F 6

$$$$
=
 OpenBabel07192307433D

 48 52  0  0  1  0  0  0  0  0999 V2000
    0.2590   12.0000   21.3940 C   0  0  0  0  0  0  0  0  0  0  0  0
    0.8630   10.7990   20.9970 C   0  0  0  0  0  0  0  0  0  0  0  0
    0.5630    9.5730   21.6070 C   0  0  0  0  0  0  0  0  0  0  0  0
   -0.3610    9.5330   22.6500 C   0  0  0  0  0  0  0  0  0  0  0  0
   -1.0190   10.6920   23.0260 C   0  0  0  0  0  0  0  0  0  0  0  0
   -0.7140   11.9080   22.3990 C   0  0  0  0  0  0  0  0  0  0  0  0
    1.6260   10.8570   20.2230 H   0  0  0  0  0  0  0  0  0  0  0  0
   -0.5990    8.6000   23.1660 H   0  0  0  0  0  0  0  0  0  0  0  0
   -1.7620   10.6560   23.8410 H   0  0  0  0  0  0  0  0  0  0  0  0
   -1.2400   12.8020   22.7560 H   0  0  0  0  0  0  0  0  0  0  0  0
    1.1750   13.3760   19.3160 C   0  0  2  0  0  0  0  0  0  0  0  0
   -0.1340   14.0140   19.7370 C   0  0  0  0  0  0  0  0  0  0  0  0
    0.7220   13.3040   20.7660 C   0  0  1  0  0  0  0  0  0  0  0  0
    1.0870   12.4620   18.7100 H   0  0  0  0  0  0  0  0  0  0  0  0
   -1.0340   13.5630   19.3570 H   0  0  0  0  0  0  0  0  0  0  0  0
   -0.2430   15.0840   19.8360 H   0  0  0  0  0  0  0  0  0  0  0  0
    1.2590   13.9600   21.4560 H   0  0  0  0  0  0  0  0  0  0  0  0
    3.5550   14.4690   19.7970 N   0  0  0  0  0  0  0  0  0  0  0  0
    4.4490   15.1150   19.0040 C   0  0  0  0  0  0  0  0  0  0  0  0
    3.9520   15.2470   17.7990 N   0  0  0  0  0  0  0  0  0  0  0  0
    2.7130   14.6630   17.8000 N   0  0  0  0  0  0  0  0  0  0  0  0
    2.4820   14.1770   19.0050 C   0  0  0  0  0  0  0  0  0  0  0  0
    5.4150   15.4550   19.3350 H   0  0  0  0  0  0  0  0  0  0  0  0
    3.7870   14.1590   21.1810 C   0  0  0  0  0  0  0  0  0  0  0  0
    3.5040   15.0150   21.7940 H   0  0  0  0  0  0  0  0  0  0  0  0
    3.1770   13.2990   21.4660 H   0  0  0  0  0  0  0  0  0  0  0  0
    4.8340   13.8960   21.3220 H   0  0  0  0  0  0  0  0  0  0  0  0
    1.1800    8.3680   21.2490 N   0  0  0  0  0  0  0  0  0  0  0  0
    1.6220    8.0170   19.9880 C   0  0  0  0  0  0  0  0  0  0  0  0
    1.4750    8.6790   18.9740 O   0  0  0  0  0  0  0  0  0  0  0  0
    1.2850    7.6500   21.9320 H   0  0  0  0  0  0  0  0  0  0  0  0
    2.2410    6.7120   19.9540 C   0  0  0  0  0  0  0  0  0  0  0  0
    3.1420    6.3080   19.0900 N   0  0  0  0  0  0  0  0  0  0  0  0
    3.3770    4.9800   19.3680 C   0  0  0  0  0  0  0  0  0  0  0  0
    4.2140    4.0590   18.7100 C   0  0  0  0  0  0  0  0  0  0  0  0
    4.2360    2.7380   19.2200 C   0  0  0  0  0  0  0  0  0  0  0  0
    3.5020    2.3670   20.3590 C   0  0  0  0  0  0  0  0  0  0  0  0
    2.6890    3.2890   21.0170 C   0  0  0  0  0  0  0  0  0  0  0  0
    2.6370    4.5790   20.4760 C   0  0  0  0  0  0  0  0  0  0  0  0
    1.8960    5.6850   20.8060 N   0  0  0  0  0  0  0  0  0  0  0  0
    4.8450    1.9790   18.7210 H   0  0  0  0  0  0  0  0  0  0  0  0
    3.5460    1.3340   20.7190 H   0  0  0  0  0  0  0  0  0  0  0  0
    2.0990    2.9980   21.8890 H   0  0  0  0  0  0  0  0  0  0  0  0
    1.2120    5.7550   21.5470 H   0  0  0  0  0  0  0  0  0  0  0  0
    4.9910    4.4200   17.4780 C   0  0  0  0  0  0  0  0  0  0  0  0
    4.3870    5.3900   16.7380 F   0  0  0  0  0  0  0  0  0  0  0  0
    5.1220    3.3720   16.6290 F   0  0  0  0  0  0  0  0  0  0  0  0
    6.6460    4.9480   17.8710 Cl  0  0  0  0  0  0  0  0  0  0  0  0
  1  6  1  0  0  0  0
  2  1  2  0  0  0  0
  2  3  1  0  0  0  0
  3  4  2  0  0  0  0
  4  5  1  0  0  0  0
  4  8  1  0  0  0  0
  5  9  1  0  0  0  0
  6 10  1  0  0  0  0
  6  5  2  0  0  0  0
  7  2  1  0  0  0  0
 11 14  1  6  0  0  0
 11 12  1  0  0  0  0
 11 13  1  0  0  0  0
 12 16  1  0  0  0  0
 12 13  1  0  0  0  0
 13  1  1  0  0  0  0
 13 17  1  1  0  0  0
 15 12  1  0  0  0  0
 18 24  1  0  0  0  0
 19 23  1  0  0  0  0
 19 18  1  0  0  0  0
 20 21  1  0  0  0  0
 20 19  2  0  0  0  0
 21 22  2  0  0  0  0
 22 11  1  0  0  0  0
 22 18  1  0  0  0  0
 24 27  1  0  0  0  0
 24 26  1  0  0  0  0
 24 25  1  0  0  0  0
 28  3  1  0  0  0  0
 28 31  1  0  0  0  0
 29 28  1  0  0  0  0
 30 29  2  0  0  0  0
 32 29  1  0  0  0  0
 32 40  1  0  0  0  0
 33 34  1  0  0  0  0
 33 32  2  0  0  0  0
 34 39  1  0  0  0  0
 35 36  1  0  0  0  0
 35 34  2  0  0  0  0
 36 37  2  0  0  0  0
 37 42  1  0  0  0  0
 37 38  1  0  0  0  0
 38 43  1  0  0  0  0
 39 40  1  0  0  0  0
 39 38  2  0  0  0  0
 40 44  1  0  0  0  0
 41 36  1  0  0  0  0
 45 48  1  0  0  0  0
 45 35  1  0  0  0  0
 46 45  1  0  0  0  0
 47 45  1  0  0  0  0
M  END
>  <MODEL>
21

>  <REMARK>
 VINA RESULT:    -7.882      3.612      4.675
 INTER + INTRA:         -10.235
 INTER:                 -10.616
 INTRA:                   0.381
 UNBOUND:                 0.182
  Name = 
  6 active torsions:
  status: ('A' for Active; 'I' for Inactive)
    1  A    between atoms: C_1  and  N_2
    2  A    between atoms: C_6  and  C_7
    3  A    between atoms: C_9  and  C_10
    4  A    between atoms: C_12  and  N_16
    5  A    between atoms: C_17  and  C_19
    6  A    between atoms: C_22  and  C_28
                            x       y       z     vdW  Elec       q    Type
                         _______ _______ _______ _____ _____    ______ ____

>  <TORSDO>
F 6

$$$$
=
 OpenBabel07192307433D

 48 52  0  0  1  0  0  0  0  0999 V2000
    2.8640    5.4030   18.6260 C   0  0  0  0  0  0  0  0  0  0  0  0
    2.5440    6.7650   18.5370 C   0  0  0  0  0  0  0  0  0  0  0  0
    1.9220    7.4590   19.5840 C   0  0  0  0  0  0  0  0  0  0  0  0
    1.5990    6.7830   20.7590 C   0  0  0  0  0  0  0  0  0  0  0  0
    1.9550    5.4520   20.9030 C   0  0  0  0  0  0  0  0  0  0  0  0
    2.5850    4.7760   19.8480 C   0  0  0  0  0  0  0  0  0  0  0  0
    2.7480    7.2630   17.5900 H   0  0  0  0  0  0  0  0  0  0  0  0
    1.0910    7.2850   21.5850 H   0  0  0  0  0  0  0  0  0  0  0  0
    1.7130    4.9220   21.8390 H   0  0  0  0  0  0  0  0  0  0  0  0
    2.8160    3.7140   20.0010 H   0  0  0  0  0  0  0  0  0  0  0  0
    4.8260    4.0930   17.4090 C   0  0  2  0  0  0  0  0  0  0  0  0
    3.6100    3.1890   17.4040 C   0  0  0  0  0  0  0  0  0  0  0  0
    3.4280    4.6930   17.4080 C   0  0  1  0  0  0  0  0  0  0  0  0
    5.3920    4.1260   18.3510 H   0  0  0  0  0  0  0  0  0  0  0  0
    3.4380    2.6070   18.2920 H   0  0  0  0  0  0  0  0  0  0  0  0
    3.2990    2.6540   16.5190 H   0  0  0  0  0  0  0  0  0  0  0  0
    3.1060    5.1240   16.4560 H   0  0  0  0  0  0  0  0  0  0  0  0
    6.7310    5.2630   15.9620 N   0  0  0  0  0  0  0  0  0  0  0  0
    7.2390    5.0070   14.7290 C   0  0  0  0  0  0  0  0  0  0  0  0
    6.5740    4.0240   14.1760 N   0  0  0  0  0  0  0  0  0  0  0  0
    5.6200    3.6180   15.0720 N   0  0  0  0  0  0  0  0  0  0  0  0
    5.7280    4.3580   16.1590 C   0  0  0  0  0  0  0  0  0  0  0  0
    8.0650    5.5420   14.2920 H   0  0  0  0  0  0  0  0  0  0  0  0
    7.2330    6.2840   16.8410 C   0  0  0  0  0  0  0  0  0  0  0  0
    8.1280    6.7270   16.4050 H   0  0  0  0  0  0  0  0  0  0  0  0
    6.4740    7.0600   16.9640 H   0  0  0  0  0  0  0  0  0  0  0  0
    7.4380    5.8500   17.8180 H   0  0  0  0  0  0  0  0  0  0  0  0
    1.5640    8.8100   19.5000 N   0  0  0  0  0  0  0  0  0  0  0  0
    0.6240    9.4580   20.2760 C   0  0  0  0  0  0  0  0  0  0  0  0
   -0.0940    8.9320   21.1100 O   0  0  0  0  0  0  0  0  0  0  0  0
    1.9720    9.3810   18.7920 H   0  0  0  0  0  0  0  0  0  0  0  0
    0.5080   10.8640   19.9600 C   0  0  0  0  0  0  0  0  0  0  0  0
    1.4270   11.6040   19.3880 N   0  0  0  0  0  0  0  0  0  0  0  0
    0.9330   12.8890   19.3680 C   0  0  0  0  0  0  0  0  0  0  0  0
    1.5370   14.0760   18.9130 C   0  0  0  0  0  0  0  0  0  0  0  0
    0.7800   15.2670   19.0400 C   0  0  0  0  0  0  0  0  0  0  0  0
   -0.5310   15.2660   19.5450 C   0  0  0  0  0  0  0  0  0  0  0  0
   -1.1300   14.0830   19.9770 C   0  0  0  0  0  0  0  0  0  0  0  0
   -0.3550   12.9200   19.8920 C   0  0  0  0  0  0  0  0  0  0  0  0
   -0.5880   11.6290   20.2960 N   0  0  0  0  0  0  0  0  0  0  0  0
    1.2200   16.2190   18.7310 H   0  0  0  0  0  0  0  0  0  0  0  0
   -1.0800   16.2090   19.6280 H   0  0  0  0  0  0  0  0  0  0  0  0
   -2.1400   14.0820   20.3910 H   0  0  0  0  0  0  0  0  0  0  0  0
   -1.4170   11.2810   20.7570 H   0  0  0  0  0  0  0  0  0  0  0  0
    2.9430   14.1130   18.3920 C   0  0  0  0  0  0  0  0  0  0  0  0
    3.1020   14.9870   17.3610 F   0  0  0  0  0  0  0  0  0  0  0  0
    3.3370   12.9170   17.8920 F   0  0  0  0  0  0  0  0  0  0  0  0
    4.1120   14.5220   19.6730 Cl  0  0  0  0  0  0  0  0  0  0  0  0
  1  6  1  0  0  0  0
  2  1  2  0  0  0  0
  2  3  1  0  0  0  0
  3  4  2  0  0  0  0
  4  5  1  0  0  0  0
  4  8  1  0  0  0  0
  5  9  1  0  0  0  0
  6 10  1  0  0  0  0
  6  5  2  0  0  0  0
  7  2  1  0  0  0  0
 11 14  1  1  0  0  0
 12 13  1  0  0  0  0
 12 11  1  0  0  0  0
 12 15  1  0  0  0  0
 13 17  1  6  0  0  0
 13 11  1  0  0  0  0
 13  1  1  0  0  0  0
 16 12  1  0  0  0  0
 18 22  1  0  0  0  0
 18 24  1  0  0  0  0
 19 18  1  0  0  0  0
 20 19  2  0  0  0  0
 20 21  1  0  0  0  0
 21 22  2  0  0  0  0
 22 11  1  0  0  0  0
 23 19  1  0  0  0  0
 24 26  1  0  0  0  0
 24 27  1  0  0  0  0
 25 24  1  0  0  0  0
 28  3  1  0  0  0  0
 28 29  1  0  0  0  0
 29 30  2  0  0  0  0
 31 28  1  0  0  0  0
 32 29  1  0  0  0  0
 32 40  1  0  0  0  0
 33 32  2  0  0  0  0
 34 33  1  0  0  0  0
 34 39  1  0  0  0  0
 35 36  1  0  0  0  0
 35 34  2  0  0  0  0
 36 37  2  0  0  0  0
 37 42  1  0  0  0  0
 37 38  1  0  0  0  0
 38 43  1  0  0  0  0
 39 38  2  0  0  0  0
 39 40  1  0  0  0  0
 40 44  1  0  0  0  0
 41 36  1  0  0  0  0
 45 35  1  0  0  0  0
 45 48  1  0  0  0  0
 46 45  1  0  0  0  0
 47 45  1  0  0  0  0
M  END
>  <MODEL>
22

>  <REMARK>
 VINA RESULT:    -7.858      3.888      9.328
 INTER + INTRA:         -10.203
 INTER:                 -10.296
 INTRA:                   0.093
 UNBOUND:                 0.182
  Name = 
  6 active torsions:
  status: ('A' for Active; 'I' for Inactive)
    1  A    between atoms: C_1  and  N_2
    2  A    between atoms: C_6  and  C_7
    3  A    between atoms: C_9  and  C_10
    4  A    between atoms: C_12  and  N_16
    5  A    between atoms: C_17  and  C_19
    6  A    between atoms: C_22  and  C_28
                            x       y       z     vdW  Elec       q    Type
                         _______ _______ _______ _____ _____    ______ ____

>  <TORSDO>
F 6

$$$$
=
 OpenBabel07192307433D

 48 52  0  0  1  0  0  0  0  0999 V2000
    3.1420    4.2480   18.7130 C   0  0  0  0  0  0  0  0  0  0  0  0
    2.6130    5.5100   19.0170 C   0  0  0  0  0  0  0  0  0  0  0  0
    2.0500    5.8050   20.2660 C   0  0  0  0  0  0  0  0  0  0  0  0
    2.0020    4.8170   21.2480 C   0  0  0  0  0  0  0  0  0  0  0  0
    2.5690    3.5780   21.0010 C   0  0  0  0  0  0  0  0  0  0  0  0
    3.1360    3.3030   19.7490 C   0  0  0  0  0  0  0  0  0  0  0  0
    2.6040    6.2510   18.2200 H   0  0  0  0  0  0  0  0  0  0  0  0
    1.5470    5.0040   22.2230 H   0  0  0  0  0  0  0  0  0  0  0  0
    2.5440    2.8020   21.7840 H   0  0  0  0  0  0  0  0  0  0  0  0
    3.5430    2.2950   19.5930 H   0  0  0  0  0  0  0  0  0  0  0  0
    5.0270    3.4390   17.0270 C   0  0  2  0  0  0  0  0  0  0  0  0
    3.8200    2.5460   16.8170 C   0  0  0  0  0  0  0  0  0  0  0  0
    3.6270    3.9680   17.3010 C   0  0  1  0  0  0  0  0  0  0  0  0
    5.6560    3.1940   17.8950 H   0  0  0  0  0  0  0  0  0  0  0  0
    3.7160    1.7120   17.4880 H   0  0  0  0  0  0  0  0  0  0  0  0
    3.4540    2.3040   15.8300 H   0  0  0  0  0  0  0  0  0  0  0  0
    3.2370    4.6640   16.5540 H   0  0  0  0  0  0  0  0  0  0  0  0
    6.7090    5.1570   15.8830 N   0  0  0  0  0  0  0  0  0  0  0  0
    7.1970    5.2660   14.6200 C   0  0  0  0  0  0  0  0  0  0  0  0
    6.6420    4.3580   13.8560 N   0  0  0  0  0  0  0  0  0  0  0  0
    5.7830    3.6320   14.6380 N   0  0  0  0  0  0  0  0  0  0  0  0
    5.8390    4.1060   15.8680 C   0  0  0  0  0  0  0  0  0  0  0  0
    7.9300    5.9920   14.3160 H   0  0  0  0  0  0  0  0  0  0  0  0
    7.1100    6.0030   16.9740 C   0  0  0  0  0  0  0  0  0  0  0  0
    7.8940    5.5060   17.5460 H   0  0  0  0  0  0  0  0  0  0  0  0
    7.5000    6.9430   16.5770 H   0  0  0  0  0  0  0  0  0  0  0  0
    6.2440    6.2270   17.5940 H   0  0  0  0  0  0  0  0  0  0  0  0
    1.4870    7.0490   20.5770 N   0  0  0  0  0  0  0  0  0  0  0  0
    1.6110    8.2120   19.8420 C   0  0  0  0  0  0  0  0  0  0  0  0
    2.2950    8.3500   18.8420 O   0  0  0  0  0  0  0  0  0  0  0  0
    0.9800    7.1560   21.4280 H   0  0  0  0  0  0  0  0  0  0  0  0
    0.8850    9.3200   20.4190 C   0  0  0  0  0  0  0  0  0  0  0  0
    0.7640   10.5170   19.8980 N   0  0  0  0  0  0  0  0  0  0  0  0
    0.0790   11.2740   20.8220 C   0  0  0  0  0  0  0  0  0  0  0  0
   -0.2700   12.6380   20.7840 C   0  0  0  0  0  0  0  0  0  0  0  0
   -0.9680   13.1490   21.9060 C   0  0  0  0  0  0  0  0  0  0  0  0
   -1.3440   12.3330   22.9860 C   0  0  0  0  0  0  0  0  0  0  0  0
   -1.0110   10.9790   23.0070 C   0  0  0  0  0  0  0  0  0  0  0  0
   -0.2800   10.4940   21.9170 C   0  0  0  0  0  0  0  0  0  0  0  0
    0.2760    9.2680   21.6550 N   0  0  0  0  0  0  0  0  0  0  0  0
   -1.2310   14.2110   21.9370 H   0  0  0  0  0  0  0  0  0  0  0  0
   -1.8810   12.7700   23.8330 H   0  0  0  0  0  0  0  0  0  0  0  0
   -1.2820   10.3460   23.8560 H   0  0  0  0  0  0  0  0  0  0  0  0
    0.2500    8.4520   22.2520 H   0  0  0  0  0  0  0  0  0  0  0  0
    0.1380   13.5400   19.6570 C   0  0  0  0  0  0  0  0  0  0  0  0
    1.4890   13.6090   19.4990 F   0  0  0  0  0  0  0  0  0  0  0  0
   -0.2500   14.8220   19.8580 F   0  0  0  0  0  0  0  0  0  0  0  0
   -0.5930   13.0390   18.1110 Cl  0  0  0  0  0  0  0  0  0  0  0  0
  1  2  2  0  0  0  0
  1  6  1  0  0  0  0
  2  3  1  0  0  0  0
  3 28  1  0  0  0  0
  3  4  2  0  0  0  0
  4  8  1  0  0  0  0
  5  4  1  0  0  0  0
  5  9  1  0  0  0  0
  6  5  2  0  0  0  0
  7  2  1  0  0  0  0
 10  6  1  0  0  0  0
 11 13  1  0  0  0  0
 11 14  1  1  0  0  0
 12 11  1  0  0  0  0
 12 13  1  0  0  0  0
 12 15  1  0  0  0  0
 13 17  1  6  0  0  0
 13  1  1  0  0  0  0
 16 12  1  0  0  0  0
 18 24  1  0  0  0  0
 19 18  1  0  0  0  0
 20 19  2  0  0  0  0
 20 21  1  0  0  0  0
 21 22  2  0  0  0  0
 22 18  1  0  0  0  0
 22 11  1  0  0  0  0
 23 19  1  0  0  0  0
 24 25  1  0  0  0  0
 24 27  1  0  0  0  0
 26 24  1  0  0  0  0
 28 31  1  0  0  0  0
 29 32  1  0  0  0  0
 29 28  1  0  0  0  0
 30 29  2  0  0  0  0
 32 40  1  0  0  0  0
 33 32  2  0  0  0  0
 33 34  1  0  0  0  0
 34 39  1  0  0  0  0
 35 34  2  0  0  0  0
 35 36  1  0  0  0  0
 36 41  1  0  0  0  0
 36 37  2  0  0  0  0
 37 38  1  0  0  0  0
 37 42  1  0  0  0  0
 38 43  1  0  0  0  0
 39 38  2  0  0  0  0
 40 39  1  0  0  0  0
 40 44  1  0  0  0  0
 45 47  1  0  0  0  0
 45 35  1  0  0  0  0
 46 45  1  0  0  0  0
 48 45  1  0  0  0  0
M  END
>  <MODEL>
23

>  <REMARK>
 VINA RESULT:    -7.845      4.374      9.591
 INTER + INTRA:         -10.185
 INTER:                  -9.930
 INTRA:                  -0.255
 UNBOUND:                 0.182
  Name = 
  6 active torsions:
  status: ('A' for Active; 'I' for Inactive)
    1  A    between atoms: C_1  and  N_2
    2  A    between atoms: C_6  and  C_7
    3  A    between atoms: C_9  and  C_10
    4  A    between atoms: C_12  and  N_16
    5  A    between atoms: C_17  and  C_19
    6  A    between atoms: C_22  and  C_28
                            x       y       z     vdW  Elec       q    Type
                         _______ _______ _______ _____ _____    ______ ____

>  <TORSDO>
F 6

$$$$
=
 OpenBabel07192307433D

 48 52  0  0  1  0  0  0  0  0999 V2000
    4.2910    4.9630   17.1330 C   0  0  0  0  0  0  0  0  0  0  0  0
    4.0820    6.3210   17.4070 C   0  0  0  0  0  0  0  0  0  0  0  0
    2.9710    6.7770   18.1300 C   0  0  0  0  0  0  0  0  0  0  0  0
    2.0310    5.8590   18.5940 C   0  0  0  0  0  0  0  0  0  0  0  0
    2.2380    4.5050   18.3920 C   0  0  0  0  0  0  0  0  0  0  0  0
    3.3600    4.0660   17.6750 C   0  0  0  0  0  0  0  0  0  0  0  0
    4.7930    7.0290   16.9850 H   0  0  0  0  0  0  0  0  0  0  0  0
    1.1390    6.1810   19.1380 H   0  0  0  0  0  0  0  0  0  0  0  0
    1.5020    3.7790   18.7750 H   0  0  0  0  0  0  0  0  0  0  0  0
    3.4610    2.9850   17.5150 H   0  0  0  0  0  0  0  0  0  0  0  0
    5.8290    5.3570   15.0050 C   0  0  2  0  0  0  0  0  0  0  0  0
    6.7320    5.3690   16.2220 C   0  0  0  0  0  0  0  0  0  0  0  0
    5.4540    4.5570   16.2430 C   0  0  1  0  0  0  0  0  0  0  0  0
    5.2740    6.2860   14.8130 H   0  0  0  0  0  0  0  0  0  0  0  0
    6.8080    6.2990   16.7570 H   0  0  0  0  0  0  0  0  0  0  0  0
    7.6650    4.8250   16.2470 H   0  0  0  0  0  0  0  0  0  0  0  0
    5.5880    3.4750   16.1590 H   0  0  0  0  0  0  0  0  0  0  0  0
    7.1830    4.6470   12.8250 N   0  0  0  0  0  0  0  0  0  0  0  0
    6.9960    3.6670   11.9030 C   0  0  0  0  0  0  0  0  0  0  0  0
    5.8820    3.0280   12.1610 N   0  0  0  0  0  0  0  0  0  0  0  0
    5.3360    3.5930   13.2840 N   0  0  0  0  0  0  0  0  0  0  0  0
    6.1340    4.5600   13.6930 C   0  0  0  0  0  0  0  0  0  0  0  0
    7.6740    3.4620   11.0930 H   0  0  0  0  0  0  0  0  0  0  0  0
    8.3120    5.5370   12.8330 C   0  0  0  0  0  0  0  0  0  0  0  0
    8.4260    5.9840   11.8450 H   0  0  0  0  0  0  0  0  0  0  0  0
    8.1420    6.3280   13.5660 H   0  0  0  0  0  0  0  0  0  0  0  0
    9.2040    4.9850   13.1270 H   0  0  0  0  0  0  0  0  0  0  0  0
    2.7260    8.1320   18.3840 N   0  0  0  0  0  0  0  0  0  0  0  0
    1.6270    8.8590   17.9690 C   0  0  0  0  0  0  0  0  0  0  0  0
    0.7310    8.4440   17.2520 O   0  0  0  0  0  0  0  0  0  0  0  0
    3.4120    8.6710   18.8660 H   0  0  0  0  0  0  0  0  0  0  0  0
    1.6600   10.2320   18.4180 C   0  0  0  0  0  0  0  0  0  0  0  0
    0.9910   10.7270   19.4310 N   0  0  0  0  0  0  0  0  0  0  0  0
    1.2430   12.0810   19.4380 C   0  0  0  0  0  0  0  0  0  0  0  0
    0.7340   13.0850   20.2820 C   0  0  0  0  0  0  0  0  0  0  0  0
    1.1690   14.4100   20.0320 C   0  0  0  0  0  0  0  0  0  0  0  0
    2.1010   14.7120   19.0260 C   0  0  0  0  0  0  0  0  0  0  0  0
    2.6160   13.7080   18.2050 C   0  0  0  0  0  0  0  0  0  0  0  0
    2.1440   12.4100   18.4290 C   0  0  0  0  0  0  0  0  0  0  0  0
    2.3640   11.2260   17.7720 N   0  0  0  0  0  0  0  0  0  0  0  0
    0.7740   15.2290   20.6400 H   0  0  0  0  0  0  0  0  0  0  0  0
    2.4080   15.7500   18.8650 H   0  0  0  0  0  0  0  0  0  0  0  0
    3.3240   13.9420   17.4070 H   0  0  0  0  0  0  0  0  0  0  0  0
    2.9430   11.0860   16.9560 H   0  0  0  0  0  0  0  0  0  0  0  0
   -0.2810   12.7990   21.3490 C   0  0  0  0  0  0  0  0  0  0  0  0
   -0.3850   13.8020   22.2630 F   0  0  0  0  0  0  0  0  0  0  0  0
    0.0340   11.7010   22.0770 F   0  0  0  0  0  0  0  0  0  0  0  0
   -1.8940   12.4870   20.6580 Cl  0  0  0  0  0  0  0  0  0  0  0  0
  1  2  2  0  0  0  0
  1  6  1  0  0  0  0
  2  3  1  0  0  0  0
  3 28  1  0  0  0  0
  3  4  2  0  0  0  0
  4  8  1  0  0  0  0
  5  4  1  0  0  0  0
  5  9  1  0  0  0  0
  6  5  2  0  0  0  0
  7  2  1  0  0  0  0
 10  6  1  0  0  0  0
 11 14  1  6  0  0  0
 11 12  1  0  0  0  0
 11 13  1  0  0  0  0
 12 13  1  0  0  0  0
 12 16  1  0  0  0  0
 12 15  1  0  0  0  0
 13 17  1  6  0  0  0
 13  1  1  0  0  0  0
 18 24  1  0  0  0  0
 18 22  1  0  0  0  0
 19 20  2  0  0  0  0
 19 18  1  0  0  0  0
 20 21  1  0  0  0  0
 21 22  2  0  0  0  0
 22 11  1  0  0  0  0
 23 19  1  0  0  0  0
 24 27  1  0  0  0  0
 24 26  1  0  0  0  0
 25 24  1  0  0  0  0
 28 31  1  0  0  0  0
 29 28  1  0  0  0  0
 29 32  1  0  0  0  0
 30 29  2  0  0  0  0
 32 33  2  0  0  0  0
 33 34  1  0  0  0  0
 34 35  1  0  0  0  0
 35 45  1  0  0  0  0
 36 35  2  0  0  0  0
 36 41  1  0  0  0  0
 37 36  1  0  0  0  0
 38 39  1  0  0  0  0
 38 37  2  0  0  0  0
 39 34  2  0  0  0  0
 40 32  1  0  0  0  0
 40 39  1  0  0  0  0
 42 37  1  0  0  0  0
 43 38  1  0  0  0  0
 44 40  1  0  0  0  0
 45 47  1  0  0  0  0
 45 46  1  0  0  0  0
 48 45  1  0  0  0  0
M  END
>  <MODEL>
24

>  <REMARK>
 VINA RESULT:    -7.567      4.668      9.818
 INTER + INTRA:          -9.818
 INTER:                  -9.738
 INTRA:                  -0.080
 UNBOUND:                 0.182
  Name = 
  6 active torsions:
  status: ('A' for Active; 'I' for Inactive)
    1  A    between atoms: C_1  and  N_2
    2  A    between atoms: C_6  and  C_7
    3  A    between atoms: C_9  and  C_10
    4  A    between atoms: C_12  and  N_16
    5  A    between atoms: C_17  and  C_19
    6  A    between atoms: C_22  and  C_28
                            x       y       z     vdW  Elec       q    Type
                         _______ _______ _______ _____ _____    ______ ____

>  <TORSDO>
F 6

$$$$
=
 OpenBabel07192307433D

 48 52  0  0  1  0  0  0  0  0999 V2000
    4.4170    4.1940   17.2400 C   0  0  0  0  0  0  0  0  0  0  0  0
    3.8450    5.4670   17.3680 C   0  0  0  0  0  0  0  0  0  0  0  0
    2.7080    5.7020   18.1530 C   0  0  0  0  0  0  0  0  0  0  0  0
    2.1110    4.6420   18.8320 C   0  0  0  0  0  0  0  0  0  0  0  0
    2.6860    3.3830   18.7750 C   0  0  0  0  0  0  0  0  0  0  0  0
    3.8280    3.1670   17.9920 C   0  0  0  0  0  0  0  0  0  0  0  0
    4.2870    6.2720   16.7840 H   0  0  0  0  0  0  0  0  0  0  0  0
    1.2090    4.7830   19.4310 H   0  0  0  0  0  0  0  0  0  0  0  0
    2.2220    2.5470   19.3250 H   0  0  0  0  0  0  0  0  0  0  0  0
    4.2250    2.1450   17.9550 H   0  0  0  0  0  0  0  0  0  0  0  0
    5.8480    4.9710   15.1430 C   0  0  2  0  0  0  0  0  0  0  0  0
    6.7890    4.9020   16.3300 C   0  0  0  0  0  0  0  0  0  0  0  0
    5.5760    3.9950   16.2790 C   0  0  1  0  0  0  0  0  0  0  0  0
    5.2190    5.8700   15.0850 H   0  0  0  0  0  0  0  0  0  0  0  0
    6.8120    5.7610   16.9770 H   0  0  0  0  0  0  0  0  0  0  0  0
    7.7600    4.4350   16.2640 H   0  0  0  0  0  0  0  0  0  0  0  0
    5.7890    2.9470   16.0540 H   0  0  0  0  0  0  0  0  0  0  0  0
    7.1930    4.6270   12.8710 N   0  0  0  0  0  0  0  0  0  0  0  0
    7.0400    3.7680   11.8300 C   0  0  0  0  0  0  0  0  0  0  0  0
    5.9660    3.0410   12.0160 N   0  0  0  0  0  0  0  0  0  0  0  0
    5.4130    3.4240   13.2110 N   0  0  0  0  0  0  0  0  0  0  0  0
    6.1680    4.3710   13.7340 C   0  0  0  0  0  0  0  0  0  0  0  0
    7.7110    3.7080   10.9920 H   0  0  0  0  0  0  0  0  0  0  0  0
    8.2750    5.5680   12.9820 C   0  0  0  0  0  0  0  0  0  0  0  0
    7.8810    6.5340   13.2980 H   0  0  0  0  0  0  0  0  0  0  0  0
    8.9880    5.2110   13.7290 H   0  0  0  0  0  0  0  0  0  0  0  0
    8.7900    5.6390   12.0260 H   0  0  0  0  0  0  0  0  0  0  0  0
    2.1020    6.9600   18.2660 N   0  0  0  0  0  0  0  0  0  0  0  0
    2.6450    8.1690   17.8760 C   0  0  0  0  0  0  0  0  0  0  0  0
    3.7710    8.3340   17.4380 O   0  0  0  0  0  0  0  0  0  0  0  0
    1.2130    7.0360   18.7090 H   0  0  0  0  0  0  0  0  0  0  0  0
    1.7530    9.2830   18.1030 C   0  0  0  0  0  0  0  0  0  0  0  0
    2.1060   10.5400   18.2290 N   0  0  0  0  0  0  0  0  0  0  0  0
    0.9560   11.2370   18.5270 C   0  0  0  0  0  0  0  0  0  0  0  0
    0.7830   12.6050   18.8110 C   0  0  0  0  0  0  0  0  0  0  0  0
   -0.5350   13.0340   19.1030 C   0  0  0  0  0  0  0  0  0  0  0  0
   -1.6310   12.1570   19.0640 C   0  0  0  0  0  0  0  0  0  0  0  0
   -1.4550   10.8060   18.7640 C   0  0  0  0  0  0  0  0  0  0  0  0
   -0.1420   10.3830   18.5240 C   0  0  0  0  0  0  0  0  0  0  0  0
    0.3940    9.1420   18.2900 N   0  0  0  0  0  0  0  0  0  0  0  0
   -0.7130   14.0820   19.3630 H   0  0  0  0  0  0  0  0  0  0  0  0
   -2.6320   12.5300   19.2990 H   0  0  0  0  0  0  0  0  0  0  0  0
   -2.3020   10.1170   18.7550 H   0  0  0  0  0  0  0  0  0  0  0  0
   -0.1060    8.2640   18.2530 H   0  0  0  0  0  0  0  0  0  0  0  0
    1.9360   13.5610   18.8850 C   0  0  0  0  0  0  0  0  0  0  0  0
    2.6810   13.5800   17.7450 F   0  0  0  0  0  0  0  0  0  0  0  0
    2.8150   13.2330   19.8630 F   0  0  0  0  0  0  0  0  0  0  0  0
    1.3970   15.2210   19.2410 Cl  0  0  0  0  0  0  0  0  0  0  0  0
  1  2  2  0  0  0  0
  1  6  1  0  0  0  0
  2  3  1  0  0  0  0
  3 28  1  0  0  0  0
  3  4  2  0  0  0  0
  4  8  1  0  0  0  0
  5  4  1  0  0  0  0
  5  9  1  0  0  0  0
  6  5  2  0  0  0  0
  7  2  1  0  0  0  0
 10  6  1  0  0  0  0
 11 14  1  6  0  0  0
 11 13  1  0  0  0  0
 11 12  1  0  0  0  0
 12 15  1  0  0  0  0
 13 17  1  6  0  0  0
 13 12  1  0  0  0  0
 13  1  1  0  0  0  0
 16 12  1  0  0  0  0
 18 24  1  0  0  0  0
 18 22  1  0  0  0  0
 19 20  2  0  0  0  0
 19 18  1  0  0  0  0
 20 21  1  0  0  0  0
 21 22  2  0  0  0  0
 22 11  1  0  0  0  0
 23 19  1  0  0  0  0
 24 25  1  0  0  0  0
 24 26  1  0  0  0  0
 27 24  1  0  0  0  0
 28 31  1  0  0  0  0
 29 32  1  0  0  0  0
 29 28  1  0  0  0  0
 30 29  2  0  0  0  0
 32 33  2  0  0  0  0
 32 40  1  0  0  0  0
 33 34  1  0  0  0  0
 34 35  1  0  0  0  0
 35 45  1  0  0  0  0
 35 36  2  0  0  0  0
 36 41  1  0  0  0  0
 37 36  1  0  0  0  0
 37 42  1  0  0  0  0
 38 37  2  0  0  0  0
 39 34  2  0  0  0  0
 39 38  1  0  0  0  0
 40 39  1  0  0  0  0
 43 38  1  0  0  0  0
 44 40  1  0  0  0  0
 45 48  1  0  0  0  0
 45 47  1  0  0  0  0
 46 45  1  0  0  0  0
M  END
>  <MODEL>
25

>  <REMARK>
 VINA RESULT:    -7.479      4.186      9.587
 INTER + INTRA:          -9.703
 INTER:                  -9.937
 INTRA:                   0.234
 UNBOUND:                 0.182
  Name = 
  6 active torsions:
  status: ('A' for Active; 'I' for Inactive)
    1  A    between atoms: C_1  and  N_2
    2  A    between atoms: C_6  and  C_7
    3  A    between atoms: C_9  and  C_10
    4  A    between atoms: C_12  and  N_16
    5  A    between atoms: C_17  and  C_19
    6  A    between atoms: C_22  and  C_28
                            x       y       z     vdW  Elec       q    Type
                         _______ _______ _______ _____ _____    ______ ____

>  <TORSDO>
F 6

$$$$
=
 OpenBabel07192307433D

 48 52  0  0  1  0  0  0  0  0999 V2000
   -0.6920   11.9440   18.9560 C   0  0  0  0  0  0  0  0  0  0  0  0
    0.2960   10.9840   18.6920 C   0  0  0  0  0  0  0  0  0  0  0  0
    0.0410    9.8380   17.9270 C   0  0  0  0  0  0  0  0  0  0  0  0
   -1.2350    9.6280   17.4080 C   0  0  0  0  0  0  0  0  0  0  0  0
   -2.2180   10.5860   17.6000 C   0  0  0  0  0  0  0  0  0  0  0  0
   -1.9430   11.7310   18.3610 C   0  0  0  0  0  0  0  0  0  0  0  0
    1.2700   11.1330   19.1550 H   0  0  0  0  0  0  0  0  0  0  0  0
   -1.4760    8.7340   16.8300 H   0  0  0  0  0  0  0  0  0  0  0  0
   -3.2230   10.4260   17.1760 H   0  0  0  0  0  0  0  0  0  0  0  0
   -2.7650   12.4430   18.5100 H   0  0  0  0  0  0  0  0  0  0  0  0
    0.5570   14.2280   19.4760 C   0  0  2  0  0  0  0  0  0  0  0  0
   -0.9300   14.4820   19.6290 C   0  0  0  0  0  0  0  0  0  0  0  0
   -0.3730   13.0980   19.8910 C   0  0  1  0  0  0  0  0  0  0  0  0
    0.9360   14.2210   18.4440 H   0  0  0  0  0  0  0  0  0  0  0  0
   -1.4760   14.6990   18.7280 H   0  0  0  0  0  0  0  0  0  0  0  0
   -1.3340   15.0220   20.4720 H   0  0  0  0  0  0  0  0  0  0  0  0
   -0.3180   12.8110   20.9440 H   0  0  0  0  0  0  0  0  0  0  0  0
    1.5230   15.0120   21.8300 N   0  0  0  0  0  0  0  0  0  0  0  0
    2.7830   15.2630   22.2720 C   0  0  0  0  0  0  0  0  0  0  0  0
    3.6290   15.1390   21.2780 N   0  0  0  0  0  0  0  0  0  0  0  0
    2.9080   14.7850   20.1680 N   0  0  0  0  0  0  0  0  0  0  0  0
    1.6370   14.6920   20.5080 C   0  0  0  0  0  0  0  0  0  0  0  0
    3.0280   15.5210   23.2870 H   0  0  0  0  0  0  0  0  0  0  0  0
    0.3550   15.0600   22.6670 C   0  0  0  0  0  0  0  0  0  0  0  0
    0.6570   14.9760   23.7110 H   0  0  0  0  0  0  0  0  0  0  0  0
   -0.1550   16.0140   22.5180 H   0  0  0  0  0  0  0  0  0  0  0  0
   -0.3260   14.2600   22.3820 H   0  0  0  0  0  0  0  0  0  0  0  0
    1.0050    8.8520   17.6810 N   0  0  0  0  0  0  0  0  0  0  0  0
    1.7530    8.1840   18.6300 C   0  0  0  0  0  0  0  0  0  0  0  0
    1.7400    8.4030   19.8300 O   0  0  0  0  0  0  0  0  0  0  0  0
    1.2350    8.6170   16.7400 H   0  0  0  0  0  0  0  0  0  0  0  0
    2.6440    7.2030   18.0520 C   0  0  0  0  0  0  0  0  0  0  0  0
    2.4890    5.9020   18.0940 N   0  0  0  0  0  0  0  0  0  0  0  0
    3.6110    5.3590   17.5100 C   0  0  0  0  0  0  0  0  0  0  0  0
    3.9740    4.0090   17.3440 C   0  0  0  0  0  0  0  0  0  0  0  0
    5.2160    3.7540   16.7120 C   0  0  0  0  0  0  0  0  0  0  0  0
    6.0310    4.7890   16.2250 C   0  0  0  0  0  0  0  0  0  0  0  0
    5.6560    6.1240   16.3760 C   0  0  0  0  0  0  0  0  0  0  0  0
    4.4500    6.3660   17.0440 C   0  0  0  0  0  0  0  0  0  0  0  0
    3.8330    7.5280   17.4340 N   0  0  0  0  0  0  0  0  0  0  0  0
    5.5560    2.7210   16.5920 H   0  0  0  0  0  0  0  0  0  0  0  0
    6.9840    4.5480   15.7450 H   0  0  0  0  0  0  0  0  0  0  0  0
    6.2970    6.9330   16.0180 H   0  0  0  0  0  0  0  0  0  0  0  0
    4.1740    8.4690   17.2970 H   0  0  0  0  0  0  0  0  0  0  0  0
    3.1380    2.8820   17.8750 C   0  0  0  0  0  0  0  0  0  0  0  0
    3.6610    1.6570   17.5940 F   0  0  0  0  0  0  0  0  0  0  0  0
    1.8980    2.8600   17.3300 F   0  0  0  0  0  0  0  0  0  0  0  0
    2.9000    3.0100   19.6370 Cl  0  0  0  0  0  0  0  0  0  0  0  0
  1 13  1  0  0  0  0
  2  1  1  0  0  0  0
  2  7  1  0  0  0  0
  3  2  2  0  0  0  0
  4  5  2  0  0  0  0
  4  3  1  0  0  0  0
  5  6  1  0  0  0  0
  6 10  1  0  0  0  0
  6  1  2  0  0  0  0
  8  4  1  0  0  0  0
  9  5  1  0  0  0  0
 11 14  1  6  0  0  0
 11 12  1  0  0  0  0
 11 13  1  0  0  0  0
 11 22  1  0  0  0  0
 12 13  1  0  0  0  0
 12 16  1  0  0  0  0
 13 17  1  1  0  0  0
 15 12  1  0  0  0  0
 18 19  1  0  0  0  0
 18 24  1  0  0  0  0
 19 23  1  0  0  0  0
 20 19  2  0  0  0  0
 21 22  2  0  0  0  0
 21 20  1  0  0  0  0
 22 18  1  0  0  0  0
 24 25  1  0  0  0  0
 26 24  1  0  0  0  0
 27 24  1  0  0  0  0
 28  3  1  0  0  0  0
 28 29  1  0  0  0  0
 29 30  2  0  0  0  0
 31 28  1  0  0  0  0
 32 33  2  0  0  0  0
 32 29  1  0  0  0  0
 34 33  1  0  0  0  0
 35 34  1  0  0  0  0
 35 45  1  0  0  0  0
 36 35  2  0  0  0  0
 37 38  2  0  0  0  0
 37 36  1  0  0  0  0
 38 39  1  0  0  0  0
 39 40  1  0  0  0  0
 39 34  2  0  0  0  0
 40 32  1  0  0  0  0
 41 36  1  0  0  0  0
 42 37  1  0  0  0  0
 43 38  1  0  0  0  0
 44 40  1  0  0  0  0
 45 48  1  0  0  0  0
 46 45  1  0  0  0  0
 47 45  1  0  0  0  0
M  END
>  <MODEL>
26

>  <REMARK>
 VINA RESULT:    -7.358      3.734      5.016
 INTER + INTRA:          -9.542
 INTER:                  -9.297
 INTRA:                  -0.245
 UNBOUND:                 0.182
  Name = 
  6 active torsions:
  status: ('A' for Active; 'I' for Inactive)
    1  A    between atoms: C_1  and  N_2
    2  A    between atoms: C_6  and  C_7
    3  A    between atoms: C_9  and  C_10
    4  A    between atoms: C_12  and  N_16
    5  A    between atoms: C_17  and  C_19
    6  A    between atoms: C_22  and  C_28
                            x       y       z     vdW  Elec       q    Type
                         _______ _______ _______ _____ _____    ______ ____

>  <TORSDO>
F 6

$$$$
=
 OpenBabel07192307433D

 48 52  0  0  1  0  0  0  0  0999 V2000
    2.9810    4.7020   18.8080 C   0  0  0  0  0  0  0  0  0  0  0  0
    2.4670    6.0060   18.8140 C   0  0  0  0  0  0  0  0  0  0  0  0
    1.7980    6.5410   19.9230 C   0  0  0  0  0  0  0  0  0  0  0  0
    1.6260    5.7600   21.0640 C   0  0  0  0  0  0  0  0  0  0  0  0
    2.1740    4.4890   21.1130 C   0  0  0  0  0  0  0  0  0  0  0  0
    2.8480    3.9730   19.9970 C   0  0  0  0  0  0  0  0  0  0  0  0
    2.5560    6.5800   17.8940 H   0  0  0  0  0  0  0  0  0  0  0  0
    1.0870    6.1360   21.9370 H   0  0  0  0  0  0  0  0  0  0  0  0
    2.0520    3.8780   22.0220 H   0  0  0  0  0  0  0  0  0  0  0  0
    3.2360    2.9490   20.0760 H   0  0  0  0  0  0  0  0  0  0  0  0
    5.0570    3.7610   17.4450 C   0  0  2  0  0  0  0  0  0  0  0  0
    3.9820    2.6920   17.4250 C   0  0  0  0  0  0  0  0  0  0  0  0
    3.5890    4.1510   17.5290 C   0  0  1  0  0  0  0  0  0  0  0  0
    5.6520    3.8220   18.3670 H   0  0  0  0  0  0  0  0  0  0  0  0
    3.9340    2.0420   18.2800 H   0  0  0  0  0  0  0  0  0  0  0  0
    3.7130    2.1690   16.5190 H   0  0  0  0  0  0  0  0  0  0  0  0
    3.1680    4.5850   16.6170 H   0  0  0  0  0  0  0  0  0  0  0  0
    6.7370    5.2560   16.0180 N   0  0  0  0  0  0  0  0  0  0  0  0
    7.2080    5.1550   14.7480 C   0  0  0  0  0  0  0  0  0  0  0  0
    6.6340    4.1430   14.1460 N   0  0  0  0  0  0  0  0  0  0  0  0
    5.7800    3.5610   15.0460 N   0  0  0  0  0  0  0  0  0  0  0  0
    5.8580    4.2250   16.1830 C   0  0  0  0  0  0  0  0  0  0  0  0
    7.9430    5.8160   14.3220 H   0  0  0  0  0  0  0  0  0  0  0  0
    7.1610    6.2610   16.9540 C   0  0  0  0  0  0  0  0  0  0  0  0
    6.3080    6.5780   17.5530 H   0  0  0  0  0  0  0  0  0  0  0  0
    7.9240    5.8400   17.6140 H   0  0  0  0  0  0  0  0  0  0  0  0
    7.6020    7.0960   16.4120 H   0  0  0  0  0  0  0  0  0  0  0  0
    1.2470    7.8290   19.9360 N   0  0  0  0  0  0  0  0  0  0  0  0
    1.2700    8.7190   20.9910 C   0  0  0  0  0  0  0  0  0  0  0  0
    1.7140    8.4910   22.1040 O   0  0  0  0  0  0  0  0  0  0  0  0
    0.7380    8.1510   19.1410 H   0  0  0  0  0  0  0  0  0  0  0  0
    0.6360    9.9790   20.6750 C   0  0  0  0  0  0  0  0  0  0  0  0
   -0.4560   10.1360   19.9650 N   0  0  0  0  0  0  0  0  0  0  0  0
   -0.6420   11.4940   19.8360 C   0  0  0  0  0  0  0  0  0  0  0  0
   -1.6320   12.2020   19.1280 C   0  0  0  0  0  0  0  0  0  0  0  0
   -1.5540   13.6160   19.1630 C   0  0  0  0  0  0  0  0  0  0  0  0
   -0.5720   14.2900   19.9080 C   0  0  0  0  0  0  0  0  0  0  0  0
    0.3940   13.5830   20.6220 C   0  0  0  0  0  0  0  0  0  0  0  0
    0.3380   12.1860   20.5410 C   0  0  0  0  0  0  0  0  0  0  0  0
    1.1590   11.2030   21.0340 N   0  0  0  0  0  0  0  0  0  0  0  0
   -2.2810   14.2080   18.6000 H   0  0  0  0  0  0  0  0  0  0  0  0
   -0.5470   15.3840   19.9060 H   0  0  0  0  0  0  0  0  0  0  0  0
    1.1730   14.1040   21.1830 H   0  0  0  0  0  0  0  0  0  0  0  0
    2.0030   11.3350   21.5720 H   0  0  0  0  0  0  0  0  0  0  0  0
   -2.6780   11.5110   18.3040 C   0  0  0  0  0  0  0  0  0  0  0  0
   -2.5510   10.1550   18.3180 F   0  0  0  0  0  0  0  0  0  0  0  0
   -2.6080   11.8490   16.9940 F   0  0  0  0  0  0  0  0  0  0  0  0
   -4.3250   11.9350   18.8370 Cl  0  0  0  0  0  0  0  0  0  0  0  0
  1  2  2  0  0  0  0
  1  6  1  0  0  0  0
  2  3  1  0  0  0  0
  3 28  1  0  0  0  0
  3  4  2  0  0  0  0
  4  5  1  0  0  0  0
  4  8  1  0  0  0  0
  5  9  1  0  0  0  0
  6 10  1  0  0  0  0
  6  5  2  0  0  0  0
  7  2  1  0  0  0  0
 11 13  1  0  0  0  0
 11 14  1  1  0  0  0
 12 11  1  0  0  0  0
 12 13  1  0  0  0  0
 12 15  1  0  0  0  0
 13 17  1  6  0  0  0
 13  1  1  0  0  0  0
 16 12  1  0  0  0  0
 18 22  1  0  0  0  0
 18 24  1  0  0  0  0
 19 18  1  0  0  0  0
 20 19  2  0  0  0  0
 20 21  1  0  0  0  0
 21 22  2  0  0  0  0
 22 11  1  0  0  0  0
 23 19  1  0  0  0  0
 24 25  1  0  0  0  0
 24 26  1  0  0  0  0
 27 24  1  0  0  0  0
 28 29  1  0  0  0  0
 29 30  2  0  0  0  0
 31 28  1  0  0  0  0
 32 29  1  0  0  0  0
 32 40  1  0  0  0  0
 33 32  2  0  0  0  0
 34 33  1  0  0  0  0
 34 39  1  0  0  0  0
 35 36  1  0  0  0  0
 35 34  2  0  0  0  0
 36 37  2  0  0  0  0
 37 38  1  0  0  0  0
 38 43  1  0  0  0  0
 39 38  2  0  0  0  0
 39 40  1  0  0  0  0
 40 44  1  0  0  0  0
 41 36  1  0  0  0  0
 42 37  1  0  0  0  0
 45 46  1  0  0  0  0
 45 48  1  0  0  0  0
 45 35  1  0  0  0  0
 47 45  1  0  0  0  0
M  END
>  <MODEL>
27

>  <REMARK>
 VINA RESULT:    -7.193      4.413      9.745
 INTER + INTRA:          -9.324
 INTER:                  -9.326
 INTRA:                   0.002
 UNBOUND:                 0.182
  Name = 
  6 active torsions:
  status: ('A' for Active; 'I' for Inactive)
    1  A    between atoms: C_1  and  N_2
    2  A    between atoms: C_6  and  C_7
    3  A    between atoms: C_9  and  C_10
    4  A    between atoms: C_12  and  N_16
    5  A    between atoms: C_17  and  C_19
    6  A    between atoms: C_22  and  C_28
                            x       y       z     vdW  Elec       q    Type
                         _______ _______ _______ _____ _____    ______ ____

>  <TORSDO>
F 6

$$$$
=
 OpenBabel07192307433D

 48 52  0  0  1  0  0  0  0  0999 V2000
    3.5580    5.9280   19.2010 C   0  0  0  0  0  0  0  0  0  0  0  0
    2.8380    7.0820   19.5400 C   0  0  0  0  0  0  0  0  0  0  0  0
    1.7060    7.0440   20.3640 C   0  0  0  0  0  0  0  0  0  0  0  0
    1.2640    5.8220   20.8670 C   0  0  0  0  0  0  0  0  0  0  0  0
    1.9860    4.6700   20.6010 C   0  0  0  0  0  0  0  0  0  0  0  0
    3.1230    4.7280   19.7820 C   0  0  0  0  0  0  0  0  0  0  0  0
    3.1610    8.0190   19.0900 H   0  0  0  0  0  0  0  0  0  0  0  0
    0.3700    5.7510   21.4910 H   0  0  0  0  0  0  0  0  0  0  0  0
    1.6450    3.7060   21.0130 H   0  0  0  0  0  0  0  0  0  0  0  0
    3.6410    3.7830   19.5760 H   0  0  0  0  0  0  0  0  0  0  0  0
    4.4600    6.0360   16.7070 C   0  0  2  0  0  0  0  0  0  0  0  0
    4.9190    7.3000   17.4070 C   0  0  0  0  0  0  0  0  0  0  0  0
    4.7030    6.0330   18.2090 C   0  0  1  0  0  0  0  0  0  0  0  0
    3.4170    6.0340   16.3610 H   0  0  0  0  0  0  0  0  0  0  0  0
    4.2130    8.1100   17.4500 H   0  0  0  0  0  0  0  0  0  0  0  0
    5.9310    7.6660   17.3220 H   0  0  0  0  0  0  0  0  0  0  0  0
    5.6160    5.5270   18.5330 H   0  0  0  0  0  0  0  0  0  0  0  0
    6.5890    4.5540   16.1020 N   0  0  0  0  0  0  0  0  0  0  0  0
    6.9150    3.8120   15.0120 C   0  0  0  0  0  0  0  0  0  0  0  0
    5.9890    3.9490   14.0950 N   0  0  0  0  0  0  0  0  0  0  0  0
    5.0310    4.7870   14.6010 N   0  0  0  0  0  0  0  0  0  0  0  0
    5.3870    5.1380   15.8220 C   0  0  0  0  0  0  0  0  0  0  0  0
    7.8020    3.2080   14.9350 H   0  0  0  0  0  0  0  0  0  0  0  0
    7.3920    4.6280   17.2920 C   0  0  0  0  0  0  0  0  0  0  0  0
    8.3420    4.1250   17.1170 H   0  0  0  0  0  0  0  0  0  0  0  0
    7.5810    5.6760   17.5350 H   0  0  0  0  0  0  0  0  0  0  0  0
    6.8480    4.1790   18.1220 H   0  0  0  0  0  0  0  0  0  0  0  0
    0.9540    8.1810   20.6850 N   0  0  0  0  0  0  0  0  0  0  0  0
    1.1690    9.0300   21.7530 C   0  0  0  0  0  0  0  0  0  0  0  0
    2.0080    8.8780   22.6250 O   0  0  0  0  0  0  0  0  0  0  0  0
    0.1490    8.4040   20.1420 H   0  0  0  0  0  0  0  0  0  0  0  0
    0.2320   10.1300   21.7910 C   0  0  0  0  0  0  0  0  0  0  0  0
    0.1830   11.1310   20.9440 N   0  0  0  0  0  0  0  0  0  0  0  0
   -0.7890   11.9870   21.4120 C   0  0  0  0  0  0  0  0  0  0  0  0
   -1.2070   13.2330   20.9080 C   0  0  0  0  0  0  0  0  0  0  0  0
   -2.2310   13.9010   21.6240 C   0  0  0  0  0  0  0  0  0  0  0  0
   -2.8430   13.3330   22.7530 C   0  0  0  0  0  0  0  0  0  0  0  0
   -2.4370   12.0890   23.2360 C   0  0  0  0  0  0  0  0  0  0  0  0
   -1.3920   11.4600   22.5500 C   0  0  0  0  0  0  0  0  0  0  0  0
   -0.7000   10.2990   22.7930 N   0  0  0  0  0  0  0  0  0  0  0  0
   -2.5640   14.8870   21.2900 H   0  0  0  0  0  0  0  0  0  0  0  0
   -3.6290   13.8840   23.2780 H   0  0  0  0  0  0  0  0  0  0  0  0
   -2.8950   11.6540   24.1280 H   0  0  0  0  0  0  0  0  0  0  0  0
   -0.8390    9.6630   23.5650 H   0  0  0  0  0  0  0  0  0  0  0  0
   -0.5560   13.8760   19.7190 C   0  0  0  0  0  0  0  0  0  0  0  0
    0.7870   14.0340   19.8730 F   0  0  0  0  0  0  0  0  0  0  0  0
   -1.0250   15.1270   19.4900 F   0  0  0  0  0  0  0  0  0  0  0  0
   -0.8550   12.9550   18.2230 Cl  0  0  0  0  0  0  0  0  0  0  0  0
  1  2  2  0  0  0  0
  1  6  1  0  0  0  0
  2  3  1  0  0  0  0
  3 28  1  0  0  0  0
  3  4  2  0  0  0  0
  4  8  1  0  0  0  0
  5  4  1  0  0  0  0
  5  9  1  0  0  0  0
  6  5  2  0  0  0  0
  7  2  1  0  0  0  0
 10  6  1  0  0  0  0
 11 14  1  6  0  0  0
 11 12  1  0  0  0  0
 11 13  1  0  0  0  0
 12 15  1  0  0  0  0
 12 13  1  0  0  0  0
 13 17  1  1  0  0  0
 13  1  1  0  0  0  0
 16 12  1  0  0  0  0
 18 24  1  0  0  0  0
 19 18  1  0  0  0  0
 20 21  1  0  0  0  0
 20 19  2  0  0  0  0
 21 22  2  0  0  0  0
 22 18  1  0  0  0  0
 22 11  1  0  0  0  0
 23 19  1  0  0  0  0
 24 26  1  0  0  0  0
 24 27  1  0  0  0  0
 25 24  1  0  0  0  0
 28 29  1  0  0  0  0
 29 32  1  0  0  0  0
 29 30  2  0  0  0  0
 31 28  1  0  0  0  0
 32 40  1  0  0  0  0
 33 34  1  0  0  0  0
 33 32  2  0  0  0  0
 34 39  1  0  0  0  0
 35 34  2  0  0  0  0
 35 36  1  0  0  0  0
 36 37  2  0  0  0  0
 37 38  1  0  0  0  0
 37 42  1  0  0  0  0
 38 43  1  0  0  0  0
 39 40  1  0  0  0  0
 39 38  2  0  0  0  0
 40 44  1  0  0  0  0
 41 36  1  0  0  0  0
 45 46  1  0  0  0  0
 45 35  1  0  0  0  0
 47 45  1  0  0  0  0
 48 45  1  0  0  0  0
M  END
>  <MODEL>
28

>  <REMARK>
 VINA RESULT:    -7.172      4.527      9.726
 INTER + INTRA:          -9.296
 INTER:                  -9.043
 INTRA:                  -0.253
 UNBOUND:                 0.182
  Name = 
  6 active torsions:
  status: ('A' for Active; 'I' for Inactive)
    1  A    between atoms: C_1  and  N_2
    2  A    between atoms: C_6  and  C_7
    3  A    between atoms: C_9  and  C_10
    4  A    between atoms: C_12  and  N_16
    5  A    between atoms: C_17  and  C_19
    6  A    between atoms: C_22  and  C_28
                            x       y       z     vdW  Elec       q    Type
                         _______ _______ _______ _____ _____    ______ ____

>  <TORSDO>
F 6

$$$$
=
 OpenBabel07192307433D

 48 52  0  0  1  0  0  0  0  0999 V2000
    0.3520   11.9010   21.5320 C   0  0  0  0  0  0  0  0  0  0  0  0
    0.9800   10.7470   21.0430 C   0  0  0  0  0  0  0  0  0  0  0  0
    0.6920    9.4690   21.5420 C   0  0  0  0  0  0  0  0  0  0  0  0
   -0.2450    9.3260   22.5640 C   0  0  0  0  0  0  0  0  0  0  0  0
   -0.9260   10.4390   23.0280 C   0  0  0  0  0  0  0  0  0  0  0  0
   -0.6320   11.7090   22.5110 C   0  0  0  0  0  0  0  0  0  0  0  0
    1.7520   10.8820   20.2880 H   0  0  0  0  0  0  0  0  0  0  0  0
   -0.4750    8.3500   22.9950 H   0  0  0  0  0  0  0  0  0  0  0  0
   -1.6790   10.3230   23.8260 H   0  0  0  0  0  0  0  0  0  0  0  0
   -1.1780   12.5620   22.9360 H   0  0  0  0  0  0  0  0  0  0  0  0
    0.9980   13.5340   19.5410 C   0  0  2  0  0  0  0  0  0  0  0  0
   -0.1600   14.1680   20.2860 C   0  0  0  0  0  0  0  0  0  0  0  0
    0.8020   13.2600   21.0250 C   0  0  1  0  0  0  0  0  0  0  0  0
    0.7310   12.7330   18.8370 H   0  0  0  0  0  0  0  0  0  0  0  0
   -1.1460   13.8320   20.0190 H   0  0  0  0  0  0  0  0  0  0  0  0
   -0.1620   15.2130   20.5570 H   0  0  0  0  0  0  0  0  0  0  0  0
    1.5040   13.7700   21.6900 H   0  0  0  0  0  0  0  0  0  0  0  0
    3.3580   14.7290   19.8500 N   0  0  0  0  0  0  0  0  0  0  0  0
    4.2420   15.2650   18.9680 C   0  0  0  0  0  0  0  0  0  0  0  0
    3.7440   15.2060   17.7580 N   0  0  0  0  0  0  0  0  0  0  0  0
    2.5150   14.6070   17.8480 N   0  0  0  0  0  0  0  0  0  0  0  0
    2.2910   14.3030   19.1120 C   0  0  0  0  0  0  0  0  0  0  0  0
    5.2000   15.6680   19.2430 H   0  0  0  0  0  0  0  0  0  0  0  0
    3.5930   14.6360   21.2650 C   0  0  0  0  0  0  0  0  0  0  0  0
    4.4050   13.9330   21.4490 H   0  0  0  0  0  0  0  0  0  0  0  0
    3.8770   15.6180   21.6490 H   0  0  0  0  0  0  0  0  0  0  0  0
    2.6750   14.3270   21.7630 H   0  0  0  0  0  0  0  0  0  0  0  0
    1.3330    8.3090   21.0910 N   0  0  0  0  0  0  0  0  0  0  0  0
    1.6870    8.0220   19.7870 C   0  0  0  0  0  0  0  0  0  0  0  0
    1.4290    8.7100   18.8140 O   0  0  0  0  0  0  0  0  0  0  0  0
    1.5260    7.5740   21.7370 H   0  0  0  0  0  0  0  0  0  0  0  0
    2.3610    6.7510   19.6560 C   0  0  0  0  0  0  0  0  0  0  0  0
    1.8160    5.5690   19.8160 N   0  0  0  0  0  0  0  0  0  0  0  0
    2.8360    4.6520   19.6950 C   0  0  0  0  0  0  0  0  0  0  0  0
    2.8050    3.2510   19.8310 C   0  0  0  0  0  0  0  0  0  0  0  0
    4.0340    2.5660   19.6650 C   0  0  0  0  0  0  0  0  0  0  0  0
    5.2220    3.2370   19.3310 C   0  0  0  0  0  0  0  0  0  0  0  0
    5.2410    4.6240   19.1800 C   0  0  0  0  0  0  0  0  0  0  0  0
    4.0320    5.2950   19.3920 C   0  0  0  0  0  0  0  0  0  0  0  0
    3.7130    6.6300   19.4110 N   0  0  0  0  0  0  0  0  0  0  0  0
    4.0670    1.4810   19.7960 H   0  0  0  0  0  0  0  0  0  0  0  0
    6.1510    2.6700   19.2150 H   0  0  0  0  0  0  0  0  0  0  0  0
    6.1680    5.1510   18.9420 H   0  0  0  0  0  0  0  0  0  0  0  0
    4.3450    7.4050   19.2670 H   0  0  0  0  0  0  0  0  0  0  0  0
    1.5580    2.5090   20.2110 C   0  0  0  0  0  0  0  0  0  0  0  0
    1.0320    2.9310   21.3940 F   0  0  0  0  0  0  0  0  0  0  0  0
    1.7820    1.1840   20.3880 F   0  0  0  0  0  0  0  0  0  0  0  0
    0.3040    2.6350   18.9510 Cl  0  0  0  0  0  0  0  0  0  0  0  0
  1  6  1  0  0  0  0
  2  1  2  0  0  0  0
  2  3  1  0  0  0  0
  3  4  2  0  0  0  0
  4  8  1  0  0  0  0
  4  5  1  0  0  0  0
  5  9  1  0  0  0  0
  6 10  1  0  0  0  0
  6  5  2  0  0  0  0
  7  2  1  0  0  0  0
 11 14  1  6  0  0  0
 11 12  1  0  0  0  0
 11 13  1  0  0  0  0
 12 16  1  0  0  0  0
 12 13  1  0  0  0  0
 13  1  1  0  0  0  0
 13 17  1  1  0  0  0
 15 12  1  0  0  0  0
 18 24  1  0  0  0  0
 19 23  1  0  0  0  0
 19 18  1  0  0  0  0
 20 21  1  0  0  0  0
 20 19  2  0  0  0  0
 21 22  2  0  0  0  0
 22 11  1  0  0  0  0
 22 18  1  0  0  0  0
 24 25  1  0  0  0  0
 24 26  1  0  0  0  0
 24 27  1  0  0  0  0
 28  3  1  0  0  0  0
 28 31  1  0  0  0  0
 29 28  1  0  0  0  0
 30 29  2  0  0  0  0
 32 29  1  0  0  0  0
 32 33  2  0  0  0  0
 34 33  1  0  0  0  0
 34 35  1  0  0  0  0
 35 45  1  0  0  0  0
 36 41  1  0  0  0  0
 36 35  2  0  0  0  0
 37 36  1  0  0  0  0
 38 37  2  0  0  0  0
 38 39  1  0  0  0  0
 39 40  1  0  0  0  0
 39 34  2  0  0  0  0
 40 32  1  0  0  0  0
 42 37  1  0  0  0  0
 43 38  1  0  0  0  0
 44 40  1  0  0  0  0
 45 47  1  0  0  0  0
 45 46  1  0  0  0  0
 48 45  1  0  0  0  0
M  END
>  <MODEL>
29

>  <REMARK>
 VINA RESULT:    -7.042      4.233      5.185
 INTER + INTRA:          -9.124
 INTER:                  -9.306
 INTRA:                   0.182
 UNBOUND:                 0.182
  Name = 
  6 active torsions:
  status: ('A' for Active; 'I' for Inactive)
    1  A    between atoms: C_1  and  N_2
    2  A    between atoms: C_6  and  C_7
    3  A    between atoms: C_9  and  C_10
    4  A    between atoms: C_12  and  N_16
    5  A    between atoms: C_17  and  C_19
    6  A    between atoms: C_22  and  C_28
                            x       y       z     vdW  Elec       q    Type
                         _______ _______ _______ _____ _____    ______ ____

>  <TORSDO>
F 6

$$$$
=
 OpenBabel07192307433D

 48 52  0  0  1  0  0  0  0  0999 V2000
    0.5840   12.4640   19.6710 C   0  0  0  0  0  0  0  0  0  0  0  0
    0.8880   11.1010   19.5550 C   0  0  0  0  0  0  0  0  0  0  0  0
    1.8400   10.6210   18.6450 C   0  0  0  0  0  0  0  0  0  0  0  0
    2.5100   11.5180   17.8150 C   0  0  0  0  0  0  0  0  0  0  0  0
    2.2760   12.8770   17.9450 C   0  0  0  0  0  0  0  0  0  0  0  0
    1.3270   13.3400   18.8680 C   0  0  0  0  0  0  0  0  0  0  0  0
    0.3130   10.4090   20.1670 H   0  0  0  0  0  0  0  0  0  0  0  0
    3.2380   11.1760   17.0760 H   0  0  0  0  0  0  0  0  0  0  0  0
    2.8180   13.5870   17.2990 H   0  0  0  0  0  0  0  0  0  0  0  0
    1.1560   14.4240   18.9090 H   0  0  0  0  0  0  0  0  0  0  0  0
   -1.5410   11.8960   21.1580 C   0  0  2  0  0  0  0  0  0  0  0  0
   -0.5140   12.5410   22.0680 C   0  0  0  0  0  0  0  0  0  0  0  0
   -0.5420   12.8960   20.5950 C   0  0  1  0  0  0  0  0  0  0  0  0
   -1.3780   10.8330   20.9330 H   0  0  0  0  0  0  0  0  0  0  0  0
    0.2470   11.8960   22.4680 H   0  0  0  0  0  0  0  0  0  0  0  0
   -0.7790   13.3180   22.7700 H   0  0  0  0  0  0  0  0  0  0  0  0
   -0.9510   13.8830   20.3620 H   0  0  0  0  0  0  0  0  0  0  0  0
   -3.9370   12.3450   20.0860 N   0  0  0  0  0  0  0  0  0  0  0  0
   -5.1430   12.6620   20.6250 C   0  0  0  0  0  0  0  0  0  0  0  0
   -5.0160   12.8250   21.9180 N   0  0  0  0  0  0  0  0  0  0  0  0
   -3.7020   12.5970   22.2340 N   0  0  0  0  0  0  0  0  0  0  0  0
   -3.0550   12.2900   21.1260 C   0  0  0  0  0  0  0  0  0  0  0  0
   -6.0520   12.7560   20.0570 H   0  0  0  0  0  0  0  0  0  0  0  0
   -3.7230   12.0980   18.6860 C   0  0  0  0  0  0  0  0  0  0  0  0
   -4.4710   11.3900   18.3270 H   0  0  0  0  0  0  0  0  0  0  0  0
   -3.8250   13.0350   18.1340 H   0  0  0  0  0  0  0  0  0  0  0  0
   -2.7130   11.7220   18.5360 H   0  0  0  0  0  0  0  0  0  0  0  0
    2.1330    9.2600   18.4900 N   0  0  0  0  0  0  0  0  0  0  0  0
    2.0100    8.2810   19.4570 C   0  0  0  0  0  0  0  0  0  0  0  0
    1.6940    8.4660   20.6200 O   0  0  0  0  0  0  0  0  0  0  0  0
    2.5150    8.9370   17.6280 H   0  0  0  0  0  0  0  0  0  0  0  0
    2.3680    6.9670   18.9710 C   0  0  0  0  0  0  0  0  0  0  0  0
    3.3810    6.6840   18.1890 N   0  0  0  0  0  0  0  0  0  0  0  0
    3.2860    5.3400   17.9030 C   0  0  0  0  0  0  0  0  0  0  0  0
    4.0900    4.5400   17.0690 C   0  0  0  0  0  0  0  0  0  0  0  0
    3.7310    3.1750   16.9550 C   0  0  0  0  0  0  0  0  0  0  0  0
    2.6590    2.6230   17.6760 C   0  0  0  0  0  0  0  0  0  0  0  0
    1.8780    3.4180   18.5150 C   0  0  0  0  0  0  0  0  0  0  0  0
    2.2120    4.7750   18.5830 C   0  0  0  0  0  0  0  0  0  0  0  0
    1.6210    5.8360   19.2240 N   0  0  0  0  0  0  0  0  0  0  0  0
    4.3050    2.5220   16.2920 H   0  0  0  0  0  0  0  0  0  0  0  0
    2.4150    1.5630   17.5570 H   0  0  0  0  0  0  0  0  0  0  0  0
    1.0300    2.9970   19.0590 H   0  0  0  0  0  0  0  0  0  0  0  0
    0.7860    5.8100   19.7910 H   0  0  0  0  0  0  0  0  0  0  0  0
    5.2260    5.1050   16.2680 C   0  0  0  0  0  0  0  0  0  0  0  0
    4.8750    6.2170   15.5650 F   0  0  0  0  0  0  0  0  0  0  0  0
    5.6780    4.2360   15.3320 F   0  0  0  0  0  0  0  0  0  0  0  0
    6.6280    5.4980   17.2950 Cl  0  0  0  0  0  0  0  0  0  0  0  0
  1 13  1  0  0  0  0
  2  1  1  0  0  0  0
  2  7  1  0  0  0  0
  3  2  2  0  0  0  0
  4  5  2  0  0  0  0
  4  3  1  0  0  0  0
  5  6  1  0  0  0  0
  6 10  1  0  0  0  0
  6  1  2  0  0  0  0
  8  4  1  0  0  0  0
  9  5  1  0  0  0  0
 11 14  1  6  0  0  0
 11 12  1  0  0  0  0
 12 15  1  0  0  0  0
 12 16  1  0  0  0  0
 13 17  1  6  0  0  0
 13 11  1  0  0  0  0
 13 12  1  0  0  0  0
 18 19  1  0  0  0  0
 18 22  1  0  0  0  0
 19 20  2  0  0  0  0
 20 21  1  0  0  0  0
 22 11  1  0  0  0  0
 22 21  2  0  0  0  0
 23 19  1  0  0  0  0
 24 18  1  0  0  0  0
 25 24  1  0  0  0  0
 26 24  1  0  0  0  0
 27 24  1  0  0  0  0
 28  3  1  0  0  0  0
 28 29  1  0  0  0  0
 29 30  2  0  0  0  0
 31 28  1  0  0  0  0
 32 40  1  0  0  0  0
 32 29  1  0  0  0  0
 33 32  2  0  0  0  0
 34 33  1  0  0  0  0
 34 39  1  0  0  0  0
 35 34  2  0  0  0  0
 36 35  1  0  0  0  0
 36 37  2  0  0  0  0
 37 38  1  0  0  0  0
 38 39  2  0  0  0  0
 38 43  1  0  0  0  0
 39 40  1  0  0  0  0
 40 44  1  0  0  0  0
 41 36  1  0  0  0  0
 42 37  1  0  0  0  0
 45 35  1  0  0  0  0
 45 48  1  0  0  0  0
 46 45  1  0  0  0  0
 47 45  1  0  0  0  0
M  END
>  <MODEL>
30

>  <REMARK>
 VINA RESULT:    -6.939      2.558      3.369
 INTER + INTRA:          -8.988
 INTER:                  -8.914
 INTRA:                  -0.074
 UNBOUND:                 0.182
  Name = 
  6 active torsions:
  status: ('A' for Active; 'I' for Inactive)
    1  A    between atoms: C_1  and  N_2
    2  A    between atoms: C_6  and  C_7
    3  A    between atoms: C_9  and  C_10
    4  A    between atoms: C_12  and  N_16
    5  A    between atoms: C_17  and  C_19
    6  A    between atoms: C_22  and  C_28
                            x       y       z     vdW  Elec       q    Type
                         _______ _______ _______ _____ _____    ______ ____

>  <TORSDO>
F 6

$$$$
=
 OpenBabel07192307433D

 48 52  0  0  1  0  0  0  0  0999 V2000
    2.9990    4.9860   18.7230 C   0  0  0  0  0  0  0  0  0  0  0  0
    2.2610    6.1780   18.7520 C   0  0  0  0  0  0  0  0  0  0  0  0
    1.6520    6.6530   19.9210 C   0  0  0  0  0  0  0  0  0  0  0  0
    1.7690    5.9230   21.1020 C   0  0  0  0  0  0  0  0  0  0  0  0
    2.5400    4.7730   21.1220 C   0  0  0  0  0  0  0  0  0  0  0  0
    3.1500    4.3160   19.9450 C   0  0  0  0  0  0  0  0  0  0  0  0
    2.1290    6.7040   17.8080 H   0  0  0  0  0  0  0  0  0  0  0  0
    1.2850    6.2500   22.0250 H   0  0  0  0  0  0  0  0  0  0  0  0
    2.6450    4.2040   22.0610 H   0  0  0  0  0  0  0  0  0  0  0  0
    3.7240    3.3830   20.0080 H   0  0  0  0  0  0  0  0  0  0  0  0
    4.9060    3.8370   17.2770 C   0  0  2  0  0  0  0  0  0  0  0  0
    3.6580    2.9880   17.1330 C   0  0  0  0  0  0  0  0  0  0  0  0
    3.5290    4.4750   17.3950 C   0  0  1  0  0  0  0  0  0  0  0  0
    5.4780    3.6900   18.2030 H   0  0  0  0  0  0  0  0  0  0  0  0
    3.4720    2.2700   17.9110 H   0  0  0  0  0  0  0  0  0  0  0  0
    3.3220    2.6230   16.1740 H   0  0  0  0  0  0  0  0  0  0  0  0
    3.2170    5.0730   16.5350 H   0  0  0  0  0  0  0  0  0  0  0  0
    6.7510    5.2650   15.9930 N   0  0  0  0  0  0  0  0  0  0  0  0
    7.2950    5.1630   14.7520 C   0  0  0  0  0  0  0  0  0  0  0  0
    6.7070    4.1960   14.0930 N   0  0  0  0  0  0  0  0  0  0  0  0
    5.7680    3.6440   14.9240 N   0  0  0  0  0  0  0  0  0  0  0  0
    5.8090    4.2800   16.0790 C   0  0  0  0  0  0  0  0  0  0  0  0
    8.0900    5.7910   14.3880 H   0  0  0  0  0  0  0  0  0  0  0  0
    7.1680    6.2260   16.9760 C   0  0  0  0  0  0  0  0  0  0  0  0
    6.3400    6.4300   17.6550 H   0  0  0  0  0  0  0  0  0  0  0  0
    8.0060    5.8180   17.5470 H   0  0  0  0  0  0  0  0  0  0  0  0
    7.5060    7.1320   16.4750 H   0  0  0  0  0  0  0  0  0  0  0  0
    0.8830    7.8230   19.9620 N   0  0  0  0  0  0  0  0  0  0  0  0
    1.1230    8.9860   19.2570 C   0  0  0  0  0  0  0  0  0  0  0  0
    2.0880    9.1970   18.5410 O   0  0  0  0  0  0  0  0  0  0  0  0
    0.1070    7.8770   20.5850 H   0  0  0  0  0  0  0  0  0  0  0  0
    0.1260   10.0040   19.4990 C   0  0  0  0  0  0  0  0  0  0  0  0
    0.0560   10.7790   20.5540 N   0  0  0  0  0  0  0  0  0  0  0  0
   -1.0940   11.5230   20.4140 C   0  0  0  0  0  0  0  0  0  0  0  0
   -1.6650   12.4680   21.2870 C   0  0  0  0  0  0  0  0  0  0  0  0
   -2.8820   13.0660   20.8750 C   0  0  0  0  0  0  0  0  0  0  0  0
   -3.4720   12.7750   19.6330 C   0  0  0  0  0  0  0  0  0  0  0  0
   -2.8900   11.8510   18.7650 C   0  0  0  0  0  0  0  0  0  0  0  0
   -1.7140   11.2310   19.2030 C   0  0  0  0  0  0  0  0  0  0  0  0
   -0.9420   10.2370   18.6580 N   0  0  0  0  0  0  0  0  0  0  0  0
   -3.3810   13.7800   21.5350 H   0  0  0  0  0  0  0  0  0  0  0  0
   -4.4130   13.2580   19.3550 H   0  0  0  0  0  0  0  0  0  0  0  0
   -3.3580   11.6060   17.8090 H   0  0  0  0  0  0  0  0  0  0  0  0
   -1.1080    9.7500   17.7880 H   0  0  0  0  0  0  0  0  0  0  0  0
   -1.0730   12.7810   22.6290 C   0  0  0  0  0  0  0  0  0  0  0  0
    0.1330   13.4070   22.5420 F   0  0  0  0  0  0  0  0  0  0  0  0
   -0.8270   11.6640   23.3560 F   0  0  0  0  0  0  0  0  0  0  0  0
   -2.1660   13.7830   23.6170 Cl  0  0  0  0  0  0  0  0  0  0  0  0
  1  2  2  0  0  0  0
  1  6  1  0  0  0  0
  2  3  1  0  0  0  0
  3 28  1  0  0  0  0
  3  4  2  0  0  0  0
  4  5  1  0  0  0  0
  4  8  1  0  0  0  0
  5  9  1  0  0  0  0
  6 10  1  0  0  0  0
  6  5  2  0  0  0  0
  7  2  1  0  0  0  0
 11 13  1  0  0  0  0
 11 14  1  1  0  0  0
 12 11  1  0  0  0  0
 12 13  1  0  0  0  0
 12 15  1  0  0  0  0
 13 17  1  6  0  0  0
 13  1  1  0  0  0  0
 16 12  1  0  0  0  0
 18 22  1  0  0  0  0
 18 24  1  0  0  0  0
 19 18  1  0  0  0  0
 20 19  2  0  0  0  0
 20 21  1  0  0  0  0
 21 22  2  0  0  0  0
 22 11  1  0  0  0  0
 23 19  1  0  0  0  0
 24 26  1  0  0  0  0
 24 25  1  0  0  0  0
 27 24  1  0  0  0  0
 28 31  1  0  0  0  0
 29 32  1  0  0  0  0
 29 28  1  0  0  0  0
 30 29  2  0  0  0  0
 32 33  2  0  0  0  0
 34 33  1  0  0  0  0
 34 35  1  0  0  0  0
 35 45  1  0  0  0  0
 36 35  2  0  0  0  0
 36 41  1  0  0  0  0
 37 36  1  0  0  0  0
 38 39  1  0  0  0  0
 38 37  2  0  0  0  0
 39 34  2  0  0  0  0
 40 39  1  0  0  0  0
 40 32  1  0  0  0  0
 42 37  1  0  0  0  0
 43 38  1  0  0  0  0
 44 40  1  0  0  0  0
 45 47  1  0  0  0  0
 45 48  1  0  0  0  0
 46 45  1  0  0  0  0
M  END
>  <MODEL>
31

>  <REMARK>
 VINA RESULT:    -6.850      4.402      9.761
 INTER + INTRA:          -8.871
 INTER:                  -8.487
 INTRA:                  -0.384
 UNBOUND:                 0.182
  Name = 
  6 active torsions:
  status: ('A' for Active; 'I' for Inactive)
    1  A    between atoms: C_1  and  N_2
    2  A    between atoms: C_6  and  C_7
    3  A    between atoms: C_9  and  C_10
    4  A    between atoms: C_12  and  N_16
    5  A    between atoms: C_17  and  C_19
    6  A    between atoms: C_22  and  C_28
                            x       y       z     vdW  Elec       q    Type
                         _______ _______ _______ _____ _____    ______ ____

>  <TORSDO>
F 6

$$$$
=
 OpenBabel07192307433D

 48 52  0  0  1  0  0  0  0  0999 V2000
    2.3980    7.4830   18.9190 C   0  0  0  0  0  0  0  0  0  0  0  0
    1.3920    8.1050   19.6710 C   0  0  0  0  0  0  0  0  0  0  0  0
    0.8980    9.3770   19.3530 C   0  0  0  0  0  0  0  0  0  0  0  0
    1.4200   10.0620   18.2570 C   0  0  0  0  0  0  0  0  0  0  0  0
    2.3730    9.4520   17.4590 C   0  0  0  0  0  0  0  0  0  0  0  0
    2.8490    8.1740   17.7860 C   0  0  0  0  0  0  0  0  0  0  0  0
    1.0390    7.5830   20.5580 H   0  0  0  0  0  0  0  0  0  0  0  0
    1.0780   11.0660   17.9960 H   0  0  0  0  0  0  0  0  0  0  0  0
    2.7730    9.9880   16.5820 H   0  0  0  0  0  0  0  0  0  0  0  0
    3.6260    7.7480   17.1390 H   0  0  0  0  0  0  0  0  0  0  0  0
    3.4280    5.0880   18.4140 C   0  0  2  0  0  0  0  0  0  0  0  0
    4.4410    5.8480   19.2490 C   0  0  0  0  0  0  0  0  0  0  0  0
    2.9650    6.1560   19.3940 C   0  0  1  0  0  0  0  0  0  0  0  0
    3.4090    5.3390   17.3440 H   0  0  0  0  0  0  0  0  0  0  0  0
    5.0970    6.5150   18.7190 H   0  0  0  0  0  0  0  0  0  0  0  0
    4.9390    5.3960   20.0940 H   0  0  0  0  0  0  0  0  0  0  0  0
    2.4990    5.7780   20.3090 H   0  0  0  0  0  0  0  0  0  0  0  0
    1.8980    3.1160   19.3390 N   0  0  0  0  0  0  0  0  0  0  0  0
    1.9640    1.7640   19.2190 C   0  0  0  0  0  0  0  0  0  0  0  0
    3.0510    1.4350   18.5650 N   0  0  0  0  0  0  0  0  0  0  0  0
    3.7010    2.5960   18.2390 N   0  0  0  0  0  0  0  0  0  0  0  0
    2.9930    3.6120   18.6920 C   0  0  0  0  0  0  0  0  0  0  0  0
    1.2250    1.0860   19.6080 H   0  0  0  0  0  0  0  0  0  0  0  0
    0.8290    3.8110   20.0030 C   0  0  0  0  0  0  0  0  0  0  0  0
    0.5040    4.6470   19.3850 H   0  0  0  0  0  0  0  0  0  0  0  0
   -0.0100    3.1260   20.1490 H   0  0  0  0  0  0  0  0  0  0  0  0
    1.1690    4.1460   20.9820 H   0  0  0  0  0  0  0  0  0  0  0  0
   -0.0820   10.0300   20.1120 N   0  0  0  0  0  0  0  0  0  0  0  0
    0.0380   10.4430   21.4240 C   0  0  0  0  0  0  0  0  0  0  0  0
    0.9980   10.2370   22.1490 O   0  0  0  0  0  0  0  0  0  0  0  0
   -0.9830   10.1850   19.7160 H   0  0  0  0  0  0  0  0  0  0  0  0
   -1.1460   11.1120   21.9120 C   0  0  0  0  0  0  0  0  0  0  0  0
   -1.9550   11.8630   21.2030 N   0  0  0  0  0  0  0  0  0  0  0  0
   -2.8840   12.3700   22.0830 C   0  0  0  0  0  0  0  0  0  0  0  0
   -3.9420   13.2700   21.8520 C   0  0  0  0  0  0  0  0  0  0  0  0
   -4.7310   13.6280   22.9730 C   0  0  0  0  0  0  0  0  0  0  0  0
   -4.5100   13.0800   24.2470 C   0  0  0  0  0  0  0  0  0  0  0  0
   -3.4710   12.1750   24.4640 C   0  0  0  0  0  0  0  0  0  0  0  0
   -2.6680   11.8640   23.3600 C   0  0  0  0  0  0  0  0  0  0  0  0
   -1.5360   11.0980   23.2340 N   0  0  0  0  0  0  0  0  0  0  0  0
   -5.5430   14.3510   22.8490 H   0  0  0  0  0  0  0  0  0  0  0  0
   -5.1410   13.3870   25.0860 H   0  0  0  0  0  0  0  0  0  0  0  0
   -3.2820   11.7630   25.4580 H   0  0  0  0  0  0  0  0  0  0  0  0
   -1.0590   10.5980   23.9720 H   0  0  0  0  0  0  0  0  0  0  0  0
   -4.1880   13.8910   20.5090 C   0  0  0  0  0  0  0  0  0  0  0  0
   -3.0910   14.5250   20.0110 F   0  0  0  0  0  0  0  0  0  0  0  0
   -5.1470   14.8480   20.5530 F   0  0  0  0  0  0  0  0  0  0  0  0
   -4.7440   12.6890   19.3160 Cl  0  0  0  0  0  0  0  0  0  0  0  0
  1 13  1  0  0  0  0
  1  2  1  0  0  0  0
  2  7  1  0  0  0  0
  3  2  2  0  0  0  0
  3 28  1  0  0  0  0
  4  3  1  0  0  0  0
  5  6  1  0  0  0  0
  5  4  2  0  0  0  0
  6  1  2  0  0  0  0
  8  4  1  0  0  0  0
  9  5  1  0  0  0  0
 10  6  1  0  0  0  0
 11 14  1  6  0  0  0
 11 22  1  0  0  0  0
 11 12  1  0  0  0  0
 11 13  1  0  0  0  0
 12 13  1  0  0  0  0
 12 16  1  0  0  0  0
 13 17  1  1  0  0  0
 15 12  1  0  0  0  0
 18 24  1  0  0  0  0
 19 18  1  0  0  0  0
 19 23  1  0  0  0  0
 20 19  2  0  0  0  0
 21 20  1  0  0  0  0
 21 22  2  0  0  0  0
 22 18  1  0  0  0  0
 24 26  1  0  0  0  0
 24 27  1  0  0  0  0
 25 24  1  0  0  0  0
 28 29  1  0  0  0  0
 29 32  1  0  0  0  0
 29 30  2  0  0  0  0
 31 28  1  0  0  0  0
 32 40  1  0  0  0  0
 33 32  2  0  0  0  0
 33 34  1  0  0  0  0
 34 39  1  0  0  0  0
 35 34  2  0  0  0  0
 35 36  1  0  0  0  0
 36 37  2  0  0  0  0
 37 38  1  0  0  0  0
 37 42  1  0  0  0  0
 38 43  1  0  0  0  0
 39 38  2  0  0  0  0
 40 39  1  0  0  0  0
 40 44  1  0  0  0  0
 41 36  1  0  0  0  0
 45 47  1  0  0  0  0
 45 35  1  0  0  0  0
 46 45  1  0  0  0  0
 48 45  1  0  0  0  0
M  END
>  <MODEL>
32

>  <REMARK>
 VINA RESULT:    -6.835      5.294     10.422
 INTER + INTRA:          -8.851
 INTER:                  -8.667
 INTRA:                  -0.185
 UNBOUND:                 0.182
  Name = 
  6 active torsions:
  status: ('A' for Active; 'I' for Inactive)
    1  A    between atoms: C_1  and  N_2
    2  A    between atoms: C_6  and  C_7
    3  A    between atoms: C_9  and  C_10
    4  A    between atoms: C_12  and  N_16
    5  A    between atoms: C_17  and  C_19
    6  A    between atoms: C_22  and  C_28
                            x       y       z     vdW  Elec       q    Type
                         _______ _______ _______ _____ _____    ______ ____

>  <TORSDO>
F 6

$$$$
