=
 OpenBabel07192307433D

 33 34  0  0  0  0  0  0  0  0999 V2000
    5.1280    4.5310   17.2040 C   0  0  0  0  0  0  0  0  0  0  0  0
    5.9100    3.8790   17.6050 H   0  0  0  0  0  0  0  0  0  0  0  0
    4.6530    3.9760   16.3870 H   0  0  0  0  0  0  0  0  0  0  0  0
    4.1720    4.7670   18.3380 C   0  0  0  0  0  0  0  0  0  0  0  0
    4.2690    5.7510   19.3060 C   0  0  0  0  0  0  0  0  0  0  0  0
    3.2110    5.6280   20.1600 N   0  0  0  0  0  0  0  0  0  0  0  0
    2.4180    4.5680   19.7850 C   0  0  0  0  0  0  0  0  0  0  0  0
    1.2440    4.0730   20.3660 C   0  0  0  0  0  0  0  0  0  0  0  0
    0.6400    2.9670   19.7640 C   0  0  0  0  0  0  0  0  0  0  0  0
    1.1880    2.3810   18.6260 C   0  0  0  0  0  0  0  0  0  0  0  0
    2.3620    2.8900   18.0580 C   0  0  0  0  0  0  0  0  0  0  0  0
    2.9950    4.0060   18.6450 C   0  0  0  0  0  0  0  0  0  0  0  0
    5.0040    6.5340   19.4390 H   0  0  0  0  0  0  0  0  0  0  0  0
    3.0300    6.2260   20.9530 H   0  0  0  0  0  0  0  0  0  0  0  0
    0.8140    4.5270   21.2510 H   0  0  0  0  0  0  0  0  0  0  0  0
   -0.2740    2.5570   20.1900 H   0  0  0  0  0  0  0  0  0  0  0  0
    0.7020    1.5220   18.1720 H   0  0  0  0  0  0  0  0  0  0  0  0
    2.7780    2.4250   17.1690 H   0  0  0  0  0  0  0  0  0  0  0  0
    5.6840    5.8130   16.7110 N   0  0  0  0  0  0  0  0  0  0  0  0
    5.3290    5.9860   15.2950 C   0  0  0  0  0  0  0  0  0  0  0  0
    5.4580    7.0270   14.9810 H   0  0  0  0  0  0  0  0  0  0  0  0
    4.2730    5.7670   15.1060 H   0  0  0  0  0  0  0  0  0  0  0  0
    5.9300    5.3420   14.6420 H   0  0  0  0  0  0  0  0  0  0  0  0
    7.1490    5.8890   16.9450 C   0  0  0  0  0  0  0  0  0  0  0  0
    7.6730    5.9540   15.9820 H   0  0  0  0  0  0  0  0  0  0  0  0
    7.6460    4.6360   17.6910 C   0  0  0  0  0  0  0  0  0  0  0  0
    8.7340    4.6130   17.7930 H   0  0  0  0  0  0  0  0  0  0  0  0
    7.3330    3.7200   17.1770 H   0  0  0  0  0  0  0  0  0  0  0  0
    7.2400    4.6040   18.7070 H   0  0  0  0  0  0  0  0  0  0  0  0
    7.5810    7.1080   17.7800 C   0  0  0  0  0  0  0  0  0  0  0  0
    8.6380    7.3490   17.6290 H   0  0  0  0  0  0  0  0  0  0  0  0
    6.9840    7.9930   17.5350 H   0  0  0  0  0  0  0  0  0  0  0  0
    7.4580    6.9100   18.8510 H   0  0  0  0  0  0  0  0  0  0  0  0
  1  2  1  0  0  0  0
  1  4  1  0  0  0  0
  3  1  1  0  0  0  0
  4 12  1  0  0  0  0
  4  5  2  0  0  0  0
  5 13  1  0  0  0  0
  5  6  1  0  0  0  0
  6 14  1  0  0  0  0
  7  6  1  0  0  0  0
  7  8  1  0  0  0  0
  8 15  1  0  0  0  0
  9 16  1  0  0  0  0
  9  8  2  0  0  0  0
 10  9  1  0  0  0  0
 11 10  2  0  0  0  0
 11 12  1  0  0  0  0
 12  7  2  0  0  0  0
 17 10  1  0  0  0  0
 18 11  1  0  0  0  0
 19 24  1  0  0  0  0
 19  1  1  0  0  0  0
 20 19  1  0  0  0  0
 21 20  1  0  0  0  0
 22 20  1  0  0  0  0
 23 20  1  0  0  0  0
 24 26  1  0  0  0  0
 24 30  1  0  0  0  0
 25 24  1  0  0  0  0
 26 27  1  0  0  0  0
 26 29  1  0  0  0  0
 28 26  1  0  0  0  0
 30 33  1  0  0  0  0
 31 30  1  0  0  0  0
 32 30  1  0  0  0  0
M  END
>  <MODEL>
1

>  <REMARK>
 VINA RESULT:    -5.926      0.000      0.000
 INTER + INTRA:          -7.934
 INTER:                  -7.596
 INTRA:                  -0.338
 UNBOUND:                -0.449
  Name = 
  6 active torsions:
  status: ('A' for Active; 'I' for Inactive)
    1  A    between atoms: C_1  and  C_2
    2  A    between atoms: C_2  and  C_3
    3  A    between atoms: C_2  and  N_4
    4  A    between atoms: N_4  and  C_5
    5  A    between atoms: N_4  and  C_6
    6  A    between atoms: C_6  and  C_7
                            x       y       z     vdW  Elec       q    Type
                         _______ _______ _______ _____ _____    ______ ____

>  <TORSDO>
F 6

$$$$
=
 OpenBabel07192307433D

 33 34  0  0  0  0  0  0  0  0999 V2000
    2.7270    4.3460   18.3780 C   0  0  0  0  0  0  0  0  0  0  0  0
    2.3760    5.2790   18.8300 H   0  0  0  0  0  0  0  0  0  0  0  0
    2.2830    4.3030   17.3770 H   0  0  0  0  0  0  0  0  0  0  0  0
    4.2230    4.4630   18.3120 C   0  0  0  0  0  0  0  0  0  0  0  0
    5.0890    4.5700   19.3860 C   0  0  0  0  0  0  0  0  0  0  0  0
    6.3650    4.6620   18.9090 N   0  0  0  0  0  0  0  0  0  0  0  0
    6.3620    4.6340   17.5340 C   0  0  0  0  0  0  0  0  0  0  0  0
    7.4290    4.7070   16.6300 C   0  0  0  0  0  0  0  0  0  0  0  0
    7.1290    4.6530   15.2670 C   0  0  0  0  0  0  0  0  0  0  0  0
    5.8130    4.5300   14.8270 C   0  0  0  0  0  0  0  0  0  0  0  0
    4.7590    4.4580   15.7450 C   0  0  0  0  0  0  0  0  0  0  0  0
    5.0320    4.5110   17.1280 C   0  0  0  0  0  0  0  0  0  0  0  0
    4.8900    4.5730   20.4500 H   0  0  0  0  0  0  0  0  0  0  0  0
    7.1950    4.7390   19.4790 H   0  0  0  0  0  0  0  0  0  0  0  0
    8.4550    4.8000   16.9690 H   0  0  0  0  0  0  0  0  0  0  0  0
    7.9350    4.7060   14.5380 H   0  0  0  0  0  0  0  0  0  0  0  0
    5.6000    4.4890   13.7620 H   0  0  0  0  0  0  0  0  0  0  0  0
    3.7380    4.3610   15.3880 H   0  0  0  0  0  0  0  0  0  0  0  0
    2.3280    3.1660   19.1790 N   0  0  0  0  0  0  0  0  0  0  0  0
    1.8750    2.0960   18.2790 C   0  0  0  0  0  0  0  0  0  0  0  0
    1.4460    1.2610   18.8420 H   0  0  0  0  0  0  0  0  0  0  0  0
    2.7030    1.6550   17.7150 H   0  0  0  0  0  0  0  0  0  0  0  0
    1.1300    2.4560   17.5600 H   0  0  0  0  0  0  0  0  0  0  0  0
    1.3060    3.5270   20.1960 C   0  0  0  0  0  0  0  0  0  0  0  0
    0.3030    3.3490   19.7880 H   0  0  0  0  0  0  0  0  0  0  0  0
    1.4240    5.0130   20.5800 C   0  0  0  0  0  0  0  0  0  0  0  0
    0.9410    5.2390   21.5350 H   0  0  0  0  0  0  0  0  0  0  0  0
    0.9790    5.6570   19.8130 H   0  0  0  0  0  0  0  0  0  0  0  0
    2.4740    5.3030   20.6900 H   0  0  0  0  0  0  0  0  0  0  0  0
    1.4160    2.7160   21.5000 C   0  0  0  0  0  0  0  0  0  0  0  0
    1.3920    3.3630   22.3830 H   0  0  0  0  0  0  0  0  0  0  0  0
    0.6080    1.9810   21.5840 H   0  0  0  0  0  0  0  0  0  0  0  0
    2.3670    2.1710   21.5410 H   0  0  0  0  0  0  0  0  0  0  0  0
  1  2  1  0  0  0  0
  1 19  1  0  0  0  0
  3  1  1  0  0  0  0
  4  1  1  0  0  0  0
  4  5  2  0  0  0  0
  5 13  1  0  0  0  0
  6  5  1  0  0  0  0
  6 14  1  0  0  0  0
  7  6  1  0  0  0  0
  8 15  1  0  0  0  0
  8  7  2  0  0  0  0
  9  8  1  0  0  0  0
 10  9  2  0  0  0  0
 10 11  1  0  0  0  0
 11 12  2  0  0  0  0
 12  7  1  0  0  0  0
 12  4  1  0  0  0  0
 16  9  1  0  0  0  0
 17 10  1  0  0  0  0
 18 11  1  0  0  0  0
 19 24  1  0  0  0  0
 20 21  1  0  0  0  0
 20 19  1  0  0  0  0
 22 20  1  0  0  0  0
 23 20  1  0  0  0  0
 24 26  1  0  0  0  0
 24 30  1  0  0  0  0
 25 24  1  0  0  0  0
 26 29  1  0  0  0  0
 26 27  1  0  0  0  0
 28 26  1  0  0  0  0
 30 33  1  0  0  0  0
 30 32  1  0  0  0  0
 30 31  1  0  0  0  0
M  END
>  <MODEL>
2

>  <REMARK>
 VINA RESULT:    -5.893      1.505      5.477
 INTER + INTRA:          -7.893
 INTER:                  -7.560
 INTRA:                  -0.333
 UNBOUND:                -0.449
  Name = 
  6 active torsions:
  status: ('A' for Active; 'I' for Inactive)
    1  A    between atoms: C_1  and  C_2
    2  A    between atoms: C_2  and  C_3
    3  A    between atoms: C_2  and  N_4
    4  A    between atoms: N_4  and  C_5
    5  A    between atoms: N_4  and  C_6
    6  A    between atoms: C_6  and  C_7
                            x       y       z     vdW  Elec       q    Type
                         _______ _______ _______ _____ _____    ______ ____

>  <TORSDO>
F 6

$$$$
=
 OpenBabel07192307433D

 33 34  0  0  0  0  0  0  0  0999 V2000
    4.1630    6.2130   17.3970 C   0  0  0  0  0  0  0  0  0  0  0  0
    3.8800    5.5620   16.5640 H   0  0  0  0  0  0  0  0  0  0  0  0
    4.0150    7.2420   17.0470 H   0  0  0  0  0  0  0  0  0  0  0  0
    3.2230    5.8730   18.5180 C   0  0  0  0  0  0  0  0  0  0  0  0
    2.9180    6.6720   19.6060 C   0  0  0  0  0  0  0  0  0  0  0  0
    2.0320    6.0030   20.4010 N   0  0  0  0  0  0  0  0  0  0  0  0
    1.7520    4.7670   19.8680 C   0  0  0  0  0  0  0  0  0  0  0  0
    0.9120    3.7510   20.3410 C   0  0  0  0  0  0  0  0  0  0  0  0
    0.8170    2.5820   19.5820 C   0  0  0  0  0  0  0  0  0  0  0  0
    1.5360    2.4360   18.3980 C   0  0  0  0  0  0  0  0  0  0  0  0
    2.3710    3.4620   17.9400 C   0  0  0  0  0  0  0  0  0  0  0  0
    2.4860    4.6540   18.6850 C   0  0  0  0  0  0  0  0  0  0  0  0
    3.2570    7.6670   19.8630 H   0  0  0  0  0  0  0  0  0  0  0  0
    1.6340    6.3610   21.2580 H   0  0  0  0  0  0  0  0  0  0  0  0
    0.3500    3.8630   21.2620 H   0  0  0  0  0  0  0  0  0  0  0  0
    0.1730    1.7740   19.9220 H   0  0  0  0  0  0  0  0  0  0  0  0
    1.4480    1.5190   17.8220 H   0  0  0  0  0  0  0  0  0  0  0  0
    2.9230    3.3350   17.0130 H   0  0  0  0  0  0  0  0  0  0  0  0
    5.5700    5.9970   17.8070 N   0  0  0  0  0  0  0  0  0  0  0  0
    6.4130    7.0560   17.2350 C   0  0  0  0  0  0  0  0  0  0  0  0
    7.0020    7.5550   18.0110 H   0  0  0  0  0  0  0  0  0  0  0  0
    5.8180    7.8550   16.7810 H   0  0  0  0  0  0  0  0  0  0  0  0
    7.0950    6.6660   16.4700 H   0  0  0  0  0  0  0  0  0  0  0  0
    6.0350    4.6350   17.4360 C   0  0  0  0  0  0  0  0  0  0  0  0
    5.6640    3.9080   18.1710 H   0  0  0  0  0  0  0  0  0  0  0  0
    7.5730    4.5720   17.4150 C   0  0  0  0  0  0  0  0  0  0  0  0
    8.0020    4.4500   18.4130 H   0  0  0  0  0  0  0  0  0  0  0  0
    8.0000    5.4780   16.9700 H   0  0  0  0  0  0  0  0  0  0  0  0
    7.9180    3.7170   16.8240 H   0  0  0  0  0  0  0  0  0  0  0  0
    5.5470    4.1690   16.0520 C   0  0  0  0  0  0  0  0  0  0  0  0
    4.4720    4.3310   15.9260 H   0  0  0  0  0  0  0  0  0  0  0  0
    6.0750    4.6890   15.2450 H   0  0  0  0  0  0  0  0  0  0  0  0
    5.7160    3.0940   15.9210 H   0  0  0  0  0  0  0  0  0  0  0  0
  1 19  1  0  0  0  0
  1  4  1  0  0  0  0
  2  1  1  0  0  0  0
  3  1  1  0  0  0  0
  4 12  1  0  0  0  0
  4  5  2  0  0  0  0
  5 13  1  0  0  0  0
  5  6  1  0  0  0  0
  6 14  1  0  0  0  0
  7  8  1  0  0  0  0
  7  6  1  0  0  0  0
  8 15  1  0  0  0  0
  9 16  1  0  0  0  0
  9  8  2  0  0  0  0
 10  9  1  0  0  0  0
 11 10  2  0  0  0  0
 11 12  1  0  0  0  0
 12  7  2  0  0  0  0
 17 10  1  0  0  0  0
 18 11  1  0  0  0  0
 20 19  1  0  0  0  0
 20 21  1  0  0  0  0
 22 20  1  0  0  0  0
 23 20  1  0  0  0  0
 24 19  1  0  0  0  0
 24 25  1  0  0  0  0
 26 24  1  0  0  0  0
 26 27  1  0  0  0  0
 28 26  1  0  0  0  0
 29 26  1  0  0  0  0
 30 24  1  0  0  0  0
 31 30  1  0  0  0  0
 32 30  1  0  0  0  0
 33 30  1  0  0  0  0
M  END
>  <MODEL>
3

>  <REMARK>
 VINA RESULT:    -5.862      1.077      1.605
 INTER + INTRA:          -7.854
 INTER:                  -7.368
 INTRA:                  -0.485
 UNBOUND:                -0.449
  Name = 
  6 active torsions:
  status: ('A' for Active; 'I' for Inactive)
    1  A    between atoms: C_1  and  C_2
    2  A    between atoms: C_2  and  C_3
    3  A    between atoms: C_2  and  N_4
    4  A    between atoms: N_4  and  C_5
    5  A    between atoms: N_4  and  C_6
    6  A    between atoms: C_6  and  C_7
                            x       y       z     vdW  Elec       q    Type
                         _______ _______ _______ _____ _____    ______ ____

>  <TORSDO>
F 6

$$$$
=
 OpenBabel07192307433D

 33 34  0  0  0  0  0  0  0  0999 V2000
    4.4470    4.0010   16.7620 C   0  0  0  0  0  0  0  0  0  0  0  0
    3.5600    4.3320   16.2140 H   0  0  0  0  0  0  0  0  0  0  0  0
    4.4330    2.9040   16.7370 H   0  0  0  0  0  0  0  0  0  0  0  0
    5.6230    4.5510   16.0070 C   0  0  0  0  0  0  0  0  0  0  0  0
    6.5870    5.4140   16.5000 C   0  0  0  0  0  0  0  0  0  0  0  0
    7.4790    5.6840   15.5020 N   0  0  0  0  0  0  0  0  0  0  0  0
    7.1170    5.0290   14.3480 C   0  0  0  0  0  0  0  0  0  0  0  0
    7.7280    5.0190   13.0880 C   0  0  0  0  0  0  0  0  0  0  0  0
    7.1330    4.2510   12.0850 C   0  0  0  0  0  0  0  0  0  0  0  0
    5.9740    3.5220   12.3330 C   0  0  0  0  0  0  0  0  0  0  0  0
    5.3760    3.5420   13.6000 C   0  0  0  0  0  0  0  0  0  0  0  0
    5.9550    4.3090   14.6320 C   0  0  0  0  0  0  0  0  0  0  0  0
    6.7080    5.8400   17.4860 H   0  0  0  0  0  0  0  0  0  0  0  0
    8.2900    6.2790   15.5920 H   0  0  0  0  0  0  0  0  0  0  0  0
    8.6320    5.5850   12.8920 H   0  0  0  0  0  0  0  0  0  0  0  0
    7.5830    4.2220   11.0950 H   0  0  0  0  0  0  0  0  0  0  0  0
    5.5260    2.9290   11.5390 H   0  0  0  0  0  0  0  0  0  0  0  0
    4.4730    2.9660   13.7790 H   0  0  0  0  0  0  0  0  0  0  0  0
    4.4430    4.4930   18.1590 N   0  0  0  0  0  0  0  0  0  0  0  0
    4.6180    3.3580   19.0770 C   0  0  0  0  0  0  0  0  0  0  0  0
    4.5040    2.4050   18.5510 H   0  0  0  0  0  0  0  0  0  0  0  0
    3.8510    3.3380   19.8570 H   0  0  0  0  0  0  0  0  0  0  0  0
    5.5990    3.3770   19.5670 H   0  0  0  0  0  0  0  0  0  0  0  0
    3.2150    5.2770   18.4490 C   0  0  0  0  0  0  0  0  0  0  0  0
    3.0560    5.3230   19.5350 H   0  0  0  0  0  0  0  0  0  0  0  0
    1.9840    4.6190   17.7990 C   0  0  0  0  0  0  0  0  0  0  0  0
    2.2490    3.9750   16.9560 H   0  0  0  0  0  0  0  0  0  0  0  0
    1.2750    5.3730   17.4400 H   0  0  0  0  0  0  0  0  0  0  0  0
    1.4590    3.9830   18.5190 H   0  0  0  0  0  0  0  0  0  0  0  0
    3.2710    6.7280   17.9370 C   0  0  0  0  0  0  0  0  0  0  0  0
    2.7780    6.8340   16.9660 H   0  0  0  0  0  0  0  0  0  0  0  0
    2.8010    7.4200   18.6450 H   0  0  0  0  0  0  0  0  0  0  0  0
    4.3090    7.0510   17.7950 H   0  0  0  0  0  0  0  0  0  0  0  0
  1 19  1  0  0  0  0
  2  1  1  0  0  0  0
  3  1  1  0  0  0  0
  4  5  2  0  0  0  0
  4  1  1  0  0  0  0
  5 13  1  0  0  0  0
  6 14  1  0  0  0  0
  6  5  1  0  0  0  0
  7 12  1  0  0  0  0
  7  6  1  0  0  0  0
  8  7  2  0  0  0  0
  9 10  2  0  0  0  0
  9  8  1  0  0  0  0
 10 11  1  0  0  0  0
 11 18  1  0  0  0  0
 11 12  2  0  0  0  0
 12  4  1  0  0  0  0
 15  8  1  0  0  0  0
 16  9  1  0  0  0  0
 17 10  1  0  0  0  0
 19 24  1  0  0  0  0
 19 20  1  0  0  0  0
 20 23  1  0  0  0  0
 20 22  1  0  0  0  0
 21 20  1  0  0  0  0
 24 25  1  0  0  0  0
 26 24  1  0  0  0  0
 26 29  1  0  0  0  0
 27 26  1  0  0  0  0
 28 26  1  0  0  0  0
 30 24  1  0  0  0  0
 30 32  1  0  0  0  0
 31 30  1  0  0  0  0
 33 30  1  0  0  0  0
M  END
>  <MODEL>
4

>  <REMARK>
 VINA RESULT:    -5.851      2.369      5.925
 INTER + INTRA:          -7.839
 INTER:                  -7.438
 INTRA:                  -0.402
 UNBOUND:                -0.449
  Name = 
  6 active torsions:
  status: ('A' for Active; 'I' for Inactive)
    1  A    between atoms: C_1  and  C_2
    2  A    between atoms: C_2  and  C_3
    3  A    between atoms: C_2  and  N_4
    4  A    between atoms: N_4  and  C_5
    5  A    between atoms: N_4  and  C_6
    6  A    between atoms: C_6  and  C_7
                            x       y       z     vdW  Elec       q    Type
                         _______ _______ _______ _____ _____    ______ ____

>  <TORSDO>
F 6

$$$$
=
 OpenBabel07192307433D

 33 34  0  0  0  0  0  0  0  0999 V2000
    5.2460    5.0260   17.7670 C   0  0  0  0  0  0  0  0  0  0  0  0
    4.7270    5.8100   17.2080 H   0  0  0  0  0  0  0  0  0  0  0  0
    5.6170    5.4960   18.6850 H   0  0  0  0  0  0  0  0  0  0  0  0
    4.2090    3.9820   18.0650 C   0  0  0  0  0  0  0  0  0  0  0  0
    4.0750    2.7530   17.4420 C   0  0  0  0  0  0  0  0  0  0  0  0
    3.0080    2.1010   17.9920 N   0  0  0  0  0  0  0  0  0  0  0  0
    2.4200    2.8800   18.9600 C   0  0  0  0  0  0  0  0  0  0  0  0
    1.3080    2.6230   19.7710 C   0  0  0  0  0  0  0  0  0  0  0  0
    0.9280    3.6100   20.6830 C   0  0  0  0  0  0  0  0  0  0  0  0
    1.6330    4.8070   20.7780 C   0  0  0  0  0  0  0  0  0  0  0  0
    2.7430    5.0480   19.9600 C   0  0  0  0  0  0  0  0  0  0  0  0
    3.1500    4.0690   19.0300 C   0  0  0  0  0  0  0  0  0  0  0  0
    4.6670    2.2940   16.6610 H   0  0  0  0  0  0  0  0  0  0  0  0
    2.6930    1.1780   17.7300 H   0  0  0  0  0  0  0  0  0  0  0  0
    0.7590    1.6910   19.7000 H   0  0  0  0  0  0  0  0  0  0  0  0
    0.0690    3.4410   21.3280 H   0  0  0  0  0  0  0  0  0  0  0  0
    1.3220    5.5630   21.4950 H   0  0  0  0  0  0  0  0  0  0  0  0
    3.2850    5.9850   20.0470 H   0  0  0  0  0  0  0  0  0  0  0  0
    6.3650    4.4470   16.9870 N   0  0  0  0  0  0  0  0  0  0  0  0
    7.6220    4.6350   17.7240 C   0  0  0  0  0  0  0  0  0  0  0  0
    8.4540    4.8340   17.0410 H   0  0  0  0  0  0  0  0  0  0  0  0
    7.9200    3.7320   18.2680 H   0  0  0  0  0  0  0  0  0  0  0  0
    7.5530    5.4570   18.4460 H   0  0  0  0  0  0  0  0  0  0  0  0
    6.4160    5.0170   15.6160 C   0  0  0  0  0  0  0  0  0  0  0  0
    7.4190    5.4220   15.4230 H   0  0  0  0  0  0  0  0  0  0  0  0
    5.3890    6.1550   15.4620 C   0  0  0  0  0  0  0  0  0  0  0  0
    4.3620    5.7870   15.4070 H   0  0  0  0  0  0  0  0  0  0  0  0
    5.5880    6.7480   14.5630 H   0  0  0  0  0  0  0  0  0  0  0  0
    5.4280    6.8310   16.3230 H   0  0  0  0  0  0  0  0  0  0  0  0
    6.1200    3.9920   14.5070 C   0  0  0  0  0  0  0  0  0  0  0  0
    6.7240    3.0860   14.6210 H   0  0  0  0  0  0  0  0  0  0  0  0
    5.0620    3.7060   14.4970 H   0  0  0  0  0  0  0  0  0  0  0  0
    6.3620    4.4040   13.5200 H   0  0  0  0  0  0  0  0  0  0  0  0
  1  4  1  0  0  0  0
  1  3  1  0  0  0  0
  2  1  1  0  0  0  0
  4 12  1  0  0  0  0
  5  6  1  0  0  0  0
  5  4  2  0  0  0  0
  6  7  1  0  0  0  0
  7 12  2  0  0  0  0
  7  8  1  0  0  0  0
  8  9  2  0  0  0  0
  9 10  1  0  0  0  0
  9 16  1  0  0  0  0
 10 17  1  0  0  0  0
 11 18  1  0  0  0  0
 11 10  2  0  0  0  0
 12 11  1  0  0  0  0
 13  5  1  0  0  0  0
 14  6  1  0  0  0  0
 15  8  1  0  0  0  0
 19 20  1  0  0  0  0
 19  1  1  0  0  0  0
 20 22  1  0  0  0  0
 20 23  1  0  0  0  0
 21 20  1  0  0  0  0
 24 19  1  0  0  0  0
 25 24  1  0  0  0  0
 26 24  1  0  0  0  0
 26 29  1  0  0  0  0
 27 26  1  0  0  0  0
 28 26  1  0  0  0  0
 30 31  1  0  0  0  0
 30 24  1  0  0  0  0
 32 30  1  0  0  0  0
 33 30  1  0  0  0  0
M  END
>  <MODEL>
5

>  <REMARK>
 VINA RESULT:    -5.802      1.558      2.720
 INTER + INTRA:          -7.777
 INTER:                  -7.407
 INTRA:                  -0.370
 UNBOUND:                -0.449
  Name = 
  6 active torsions:
  status: ('A' for Active; 'I' for Inactive)
    1  A    between atoms: C_1  and  C_2
    2  A    between atoms: C_2  and  C_3
    3  A    between atoms: C_2  and  N_4
    4  A    between atoms: N_4  and  C_5
    5  A    between atoms: N_4  and  C_6
    6  A    between atoms: C_6  and  C_7
                            x       y       z     vdW  Elec       q    Type
                         _______ _______ _______ _____ _____    ______ ____

>  <TORSDO>
F 6

$$$$
=
 OpenBabel07192307433D

 33 34  0  0  0  0  0  0  0  0999 V2000
    5.5970    4.1930   18.1720 C   0  0  0  0  0  0  0  0  0  0  0  0
    6.0400    4.1220   19.1690 H   0  0  0  0  0  0  0  0  0  0  0  0
    5.7780    3.2270   17.6850 H   0  0  0  0  0  0  0  0  0  0  0  0
    4.1310    4.4300   18.3920 C   0  0  0  0  0  0  0  0  0  0  0  0
    3.3160    5.2800   17.6650 C   0  0  0  0  0  0  0  0  0  0  0  0
    2.0530    5.2190   18.1800 N   0  0  0  0  0  0  0  0  0  0  0  0
    2.0160    4.3540   19.2480 C   0  0  0  0  0  0  0  0  0  0  0  0
    0.9460    3.9900   20.0760 C   0  0  0  0  0  0  0  0  0  0  0  0
    1.2010    3.0740   21.0990 C   0  0  0  0  0  0  0  0  0  0  0  0
    2.4750    2.5450   21.2870 C   0  0  0  0  0  0  0  0  0  0  0  0
    3.5330    2.9190   20.4500 C   0  0  0  0  0  0  0  0  0  0  0  0
    3.3050    3.8420   19.4080 C   0  0  0  0  0  0  0  0  0  0  0  0
    3.5410    5.9100   16.8140 H   0  0  0  0  0  0  0  0  0  0  0  0
    1.2560    5.7320   17.8310 H   0  0  0  0  0  0  0  0  0  0  0  0
   -0.0470    4.3990   19.9310 H   0  0  0  0  0  0  0  0  0  0  0  0
    0.3910    2.7700   21.7590 H   0  0  0  0  0  0  0  0  0  0  0  0
    2.6520    1.8330   22.0890 H   0  0  0  0  0  0  0  0  0  0  0  0
    4.5210    2.4960   20.6070 H   0  0  0  0  0  0  0  0  0  0  0  0
    6.1950    5.2960   17.3830 N   0  0  0  0  0  0  0  0  0  0  0  0
    7.1210    4.7380   16.3880 C   0  0  0  0  0  0  0  0  0  0  0  0
    6.7010    4.8020   15.3790 H   0  0  0  0  0  0  0  0  0  0  0  0
    7.3000    3.6690   16.5470 H   0  0  0  0  0  0  0  0  0  0  0  0
    8.0910    5.2490   16.4000 H   0  0  0  0  0  0  0  0  0  0  0  0
    6.8440    6.2970   18.2680 C   0  0  0  0  0  0  0  0  0  0  0  0
    6.0830    6.7880   18.8890 H   0  0  0  0  0  0  0  0  0  0  0  0
    7.5670    7.3710   17.4350 C   0  0  0  0  0  0  0  0  0  0  0  0
    7.5060    7.1800   16.3610 H   0  0  0  0  0  0  0  0  0  0  0  0
    8.6260    7.4390   17.7090 H   0  0  0  0  0  0  0  0  0  0  0  0
    7.1170    8.3570   17.5990 H   0  0  0  0  0  0  0  0  0  0  0  0
    7.8890    5.6930   19.2260 C   0  0  0  0  0  0  0  0  0  0  0  0
    7.9510    6.2550   20.1630 H   0  0  0  0  0  0  0  0  0  0  0  0
    7.6600    4.6480   19.4600 H   0  0  0  0  0  0  0  0  0  0  0  0
    8.8890    5.7230   18.7790 H   0  0  0  0  0  0  0  0  0  0  0  0
  1  4  1  0  0  0  0
  1  2  1  0  0  0  0
  3  1  1  0  0  0  0
  4 12  1  0  0  0  0
  5  6  1  0  0  0  0
  5  4  2  0  0  0  0
  6  7  1  0  0  0  0
  7 12  2  0  0  0  0
  7  8  1  0  0  0  0
  8  9  2  0  0  0  0
  9 10  1  0  0  0  0
  9 16  1  0  0  0  0
 10 17  1  0  0  0  0
 11 18  1  0  0  0  0
 11 10  2  0  0  0  0
 12 11  1  0  0  0  0
 13  5  1  0  0  0  0
 14  6  1  0  0  0  0
 15  8  1  0  0  0  0
 19  1  1  0  0  0  0
 19 24  1  0  0  0  0
 20 23  1  0  0  0  0
 20 22  1  0  0  0  0
 20 19  1  0  0  0  0
 21 20  1  0  0  0  0
 24 25  1  0  0  0  0
 24 30  1  0  0  0  0
 26 29  1  0  0  0  0
 26 28  1  0  0  0  0
 26 24  1  0  0  0  0
 27 26  1  0  0  0  0
 30 32  1  0  0  0  0
 30 31  1  0  0  0  0
 33 30  1  0  0  0  0
M  END
>  <MODEL>
6

>  <REMARK>
 VINA RESULT:    -5.736      1.441      1.838
 INTER + INTRA:          -7.694
 INTER:                  -7.388
 INTRA:                  -0.306
 UNBOUND:                -0.449
  Name = 
  6 active torsions:
  status: ('A' for Active; 'I' for Inactive)
    1  A    between atoms: C_1  and  C_2
    2  A    between atoms: C_2  and  C_3
    3  A    between atoms: C_2  and  N_4
    4  A    between atoms: N_4  and  C_5
    5  A    between atoms: N_4  and  C_6
    6  A    between atoms: C_6  and  C_7
                            x       y       z     vdW  Elec       q    Type
                         _______ _______ _______ _____ _____    ______ ____

>  <TORSDO>
F 6

$$$$
=
 OpenBabel07192307433D

 33 34  0  0  0  0  0  0  0  0999 V2000
    3.2700    4.4340   20.1020 C   0  0  0  0  0  0  0  0  0  0  0  0
    3.3670    3.5800   20.7780 H   0  0  0  0  0  0  0  0  0  0  0  0
    3.8490    5.2500   20.5530 H   0  0  0  0  0  0  0  0  0  0  0  0
    3.8680    3.9940   18.7970 C   0  0  0  0  0  0  0  0  0  0  0  0
    4.0840    2.6880   18.3900 C   0  0  0  0  0  0  0  0  0  0  0  0
    4.6500    2.7090   17.1470 N   0  0  0  0  0  0  0  0  0  0  0  0
    4.8290    4.0060   16.7270 C   0  0  0  0  0  0  0  0  0  0  0  0
    5.3740    4.4990   15.5340 C   0  0  0  0  0  0  0  0  0  0  0  0
    5.4310    5.8850   15.3720 C   0  0  0  0  0  0  0  0  0  0  0  0
    4.9620    6.7420   16.3640 C   0  0  0  0  0  0  0  0  0  0  0  0
    4.4190    6.2330   17.5490 C   0  0  0  0  0  0  0  0  0  0  0  0
    4.3490    4.8370   17.7400 C   0  0  0  0  0  0  0  0  0  0  0  0
    3.8640    1.7530   18.8870 H   0  0  0  0  0  0  0  0  0  0  0  0
    4.9020    1.8920   16.6090 H   0  0  0  0  0  0  0  0  0  0  0  0
    5.7380    3.8330   14.7600 H   0  0  0  0  0  0  0  0  0  0  0  0
    5.8490    6.3000   14.4570 H   0  0  0  0  0  0  0  0  0  0  0  0
    5.0150    7.8180   16.2180 H   0  0  0  0  0  0  0  0  0  0  0  0
    4.0550    6.9140   18.3130 H   0  0  0  0  0  0  0  0  0  0  0  0
    1.8540    4.8340   19.9240 N   0  0  0  0  0  0  0  0  0  0  0  0
    1.6180    6.1120   20.6090 C   0  0  0  0  0  0  0  0  0  0  0  0
    2.4430    6.8100   20.4380 H   0  0  0  0  0  0  0  0  0  0  0  0
    1.5770    5.9940   21.6980 H   0  0  0  0  0  0  0  0  0  0  0  0
    0.6830    6.5830   20.2840 H   0  0  0  0  0  0  0  0  0  0  0  0
    0.9330    3.7620   20.3810 C   0  0  0  0  0  0  0  0  0  0  0  0
    0.0120    4.2120   20.7740 H   0  0  0  0  0  0  0  0  0  0  0  0
    1.5840    2.9230   21.4950 C   0  0  0  0  0  0  0  0  0  0  0  0
    1.9920    3.5390   22.3010 H   0  0  0  0  0  0  0  0  0  0  0  0
    2.3950    2.3010   21.0990 H   0  0  0  0  0  0  0  0  0  0  0  0
    0.8490    2.2560   21.9590 H   0  0  0  0  0  0  0  0  0  0  0  0
    0.5190    2.7840   19.2660 C   0  0  0  0  0  0  0  0  0  0  0  0
   -0.5670    2.6460   19.2310 H   0  0  0  0  0  0  0  0  0  0  0  0
    0.8580    3.1300   18.2840 H   0  0  0  0  0  0  0  0  0  0  0  0
    0.9520    1.7920   19.4380 H   0  0  0  0  0  0  0  0  0  0  0  0
  1  3  1  0  0  0  0
  1  2  1  0  0  0  0
  4  1  1  0  0  0  0
  5  4  2  0  0  0  0
  5 13  1  0  0  0  0
  6  5  1  0  0  0  0
  7  6  1  0  0  0  0
  7 12  1  0  0  0  0
  8  7  2  0  0  0  0
  9  8  1  0  0  0  0
  9 10  2  0  0  0  0
 10 11  1  0  0  0  0
 11 12  2  0  0  0  0
 11 18  1  0  0  0  0
 12  4  1  0  0  0  0
 14  6  1  0  0  0  0
 15  8  1  0  0  0  0
 16  9  1  0  0  0  0
 17 10  1  0  0  0  0
 19  1  1  0  0  0  0
 19 24  1  0  0  0  0
 19 20  1  0  0  0  0
 20 22  1  0  0  0  0
 21 20  1  0  0  0  0
 23 20  1  0  0  0  0
 24 25  1  0  0  0  0
 24 26  1  0  0  0  0
 26 29  1  0  0  0  0
 26 27  1  0  0  0  0
 28 26  1  0  0  0  0
 30 33  1  0  0  0  0
 30 24  1  0  0  0  0
 31 30  1  0  0  0  0
 32 30  1  0  0  0  0
M  END
>  <MODEL>
7

>  <REMARK>
 VINA RESULT:    -5.661      1.783      5.506
 INTER + INTRA:          -7.600
 INTER:                  -7.181
 INTRA:                  -0.419
 UNBOUND:                -0.449
  Name = 
  6 active torsions:
  status: ('A' for Active; 'I' for Inactive)
    1  A    between atoms: C_1  and  C_2
    2  A    between atoms: C_2  and  C_3
    3  A    between atoms: C_2  and  N_4
    4  A    between atoms: N_4  and  C_5
    5  A    between atoms: N_4  and  C_6
    6  A    between atoms: C_6  and  C_7
                            x       y       z     vdW  Elec       q    Type
                         _______ _______ _______ _____ _____    ______ ____

>  <TORSDO>
F 6

$$$$
=
 OpenBabel07192307433D

 33 34  0  0  0  0  0  0  0  0999 V2000
    4.3290    4.3250   16.7150 C   0  0  0  0  0  0  0  0  0  0  0  0
    4.8810    3.6960   16.0100 H   0  0  0  0  0  0  0  0  0  0  0  0
    3.6110    4.9000   16.1170 H   0  0  0  0  0  0  0  0  0  0  0  0
    3.6310    3.3780   17.6480 C   0  0  0  0  0  0  0  0  0  0  0  0
    3.6210    1.9960   17.5620 C   0  0  0  0  0  0  0  0  0  0  0  0
    2.8700    1.5020   18.5910 N   0  0  0  0  0  0  0  0  0  0  0  0
    2.3680    2.5320   19.3510 C   0  0  0  0  0  0  0  0  0  0  0  0
    1.5500    2.4960   20.4880 C   0  0  0  0  0  0  0  0  0  0  0  0
    1.1880    3.7160   21.0640 C   0  0  0  0  0  0  0  0  0  0  0  0
    1.6280    4.9220   20.5250 C   0  0  0  0  0  0  0  0  0  0  0  0
    2.4450    4.9400   19.3880 C   0  0  0  0  0  0  0  0  0  0  0  0
    2.8260    3.7230   18.7850 C   0  0  0  0  0  0  0  0  0  0  0  0
    4.1020    1.3340   16.8550 H   0  0  0  0  0  0  0  0  0  0  0  0
    2.7060    0.5230   18.7720 H   0  0  0  0  0  0  0  0  0  0  0  0
    1.2080    1.5590   20.9110 H   0  0  0  0  0  0  0  0  0  0  0  0
    0.5550    3.7230   21.9480 H   0  0  0  0  0  0  0  0  0  0  0  0
    1.3360    5.8610   20.9890 H   0  0  0  0  0  0  0  0  0  0  0  0
    2.7820    5.8880   18.9800 H   0  0  0  0  0  0  0  0  0  0  0  0
    5.2310    5.2310   17.4630 N   0  0  0  0  0  0  0  0  0  0  0  0
    5.0470    6.6080   16.9850 C   0  0  0  0  0  0  0  0  0  0  0  0
    5.7890    6.8630   16.2220 H   0  0  0  0  0  0  0  0  0  0  0  0
    5.2030    7.3440   17.7810 H   0  0  0  0  0  0  0  0  0  0  0  0
    4.0440    6.7650   16.5700 H   0  0  0  0  0  0  0  0  0  0  0  0
    6.6430    4.7780   17.3710 C   0  0  0  0  0  0  0  0  0  0  0  0
    6.7350    3.7710   17.8000 H   0  0  0  0  0  0  0  0  0  0  0  0
    7.5710    5.7300   18.1480 C   0  0  0  0  0  0  0  0  0  0  0  0
    7.7550    6.6660   17.6140 H   0  0  0  0  0  0  0  0  0  0  0  0
    8.5390    5.2600   18.3530 H   0  0  0  0  0  0  0  0  0  0  0  0
    7.1250    6.0070   19.1100 H   0  0  0  0  0  0  0  0  0  0  0  0
    7.1780    4.7080   15.9290 C   0  0  0  0  0  0  0  0  0  0  0  0
    7.6130    3.7290   15.7060 H   0  0  0  0  0  0  0  0  0  0  0  0
    6.3880    4.9140   15.1980 H   0  0  0  0  0  0  0  0  0  0  0  0
    7.9760    5.4440   15.7730 H   0  0  0  0  0  0  0  0  0  0  0  0
  1 19  1  0  0  0  0
  1  4  1  0  0  0  0
  2  1  1  0  0  0  0
  3  1  1  0  0  0  0
  4 12  1  0  0  0  0
  5  4  2  0  0  0  0
  5  6  1  0  0  0  0
  6 14  1  0  0  0  0
  6  7  1  0  0  0  0
  7  8  1  0  0  0  0
  8 15  1  0  0  0  0
  8  9  2  0  0  0  0
  9 16  1  0  0  0  0
 10 17  1  0  0  0  0
 10  9  1  0  0  0  0
 11 10  2  0  0  0  0
 12  7  2  0  0  0  0
 12 11  1  0  0  0  0
 13  5  1  0  0  0  0
 18 11  1  0  0  0  0
 20 19  1  0  0  0  0
 20 22  1  0  0  0  0
 21 20  1  0  0  0  0
 23 20  1  0  0  0  0
 24 19  1  0  0  0  0
 24 25  1  0  0  0  0
 24 26  1  0  0  0  0
 26 28  1  0  0  0  0
 26 29  1  0  0  0  0
 27 26  1  0  0  0  0
 30 24  1  0  0  0  0
 31 30  1  0  0  0  0
 32 30  1  0  0  0  0
 33 30  1  0  0  0  0
M  END
>  <MODEL>
8

>  <REMARK>
 VINA RESULT:    -5.639      1.626      2.359
 INTER + INTRA:          -7.572
 INTER:                  -7.296
 INTRA:                  -0.276
 UNBOUND:                -0.449
  Name = 
  6 active torsions:
  status: ('A' for Active; 'I' for Inactive)
    1  A    between atoms: C_1  and  C_2
    2  A    between atoms: C_2  and  C_3
    3  A    between atoms: C_2  and  N_4
    4  A    between atoms: N_4  and  C_5
    5  A    between atoms: N_4  and  C_6
    6  A    between atoms: C_6  and  C_7
                            x       y       z     vdW  Elec       q    Type
                         _______ _______ _______ _____ _____    ______ ____

>  <TORSDO>
F 6

$$$$
=
 OpenBabel07192307433D

 33 34  0  0  0  0  0  0  0  0999 V2000
    2.3700    4.3180   18.4790 C   0  0  0  0  0  0  0  0  0  0  0  0
    2.0890    5.3110   18.8430 H   0  0  0  0  0  0  0  0  0  0  0  0
    1.9970    4.2510   17.4500 H   0  0  0  0  0  0  0  0  0  0  0  0
    3.8710    4.2760   18.5240 C   0  0  0  0  0  0  0  0  0  0  0  0
    4.6490    3.2840   19.0960 C   0  0  0  0  0  0  0  0  0  0  0  0
    5.9640    3.6170   18.9350 N   0  0  0  0  0  0  0  0  0  0  0  0
    6.0740    4.8200   18.2790 C   0  0  0  0  0  0  0  0  0  0  0  0
    7.2150    5.5430   17.9080 C   0  0  0  0  0  0  0  0  0  0  0  0
    7.0260    6.7550   17.2400 C   0  0  0  0  0  0  0  0  0  0  0  0
    5.7460    7.2240   16.9540 C   0  0  0  0  0  0  0  0  0  0  0  0
    4.6160    6.4880   17.3310 C   0  0  0  0  0  0  0  0  0  0  0  0
    4.7770    5.2610   18.0080 C   0  0  0  0  0  0  0  0  0  0  0  0
    4.3630    2.3660   19.5910 H   0  0  0  0  0  0  0  0  0  0  0  0
    6.7470    3.0620   19.2490 H   0  0  0  0  0  0  0  0  0  0  0  0
    8.2120    5.1790   18.1280 H   0  0  0  0  0  0  0  0  0  0  0  0
    7.8920    7.3400   16.9380 H   0  0  0  0  0  0  0  0  0  0  0  0
    5.6210    8.1690   16.4320 H   0  0  0  0  0  0  0  0  0  0  0  0
    3.6250    6.8650   17.1000 H   0  0  0  0  0  0  0  0  0  0  0  0
    1.7880    3.2430   19.3170 N   0  0  0  0  0  0  0  0  0  0  0  0
    0.7470    2.5410   18.5550 C   0  0  0  0  0  0  0  0  0  0  0  0
    1.0260    1.4980   18.3750 H   0  0  0  0  0  0  0  0  0  0  0  0
    0.6090    2.9680   17.5560 H   0  0  0  0  0  0  0  0  0  0  0  0
   -0.2210    2.5640   19.0690 H   0  0  0  0  0  0  0  0  0  0  0  0
    1.2870    3.7810   20.6080 C   0  0  0  0  0  0  0  0  0  0  0  0
    0.2080    3.5960   20.6890 H   0  0  0  0  0  0  0  0  0  0  0  0
    1.5340    5.2980   20.6990 C   0  0  0  0  0  0  0  0  0  0  0  0
    2.5980    5.5480   20.7310 H   0  0  0  0  0  0  0  0  0  0  0  0
    1.0570    5.7240   21.5880 H   0  0  0  0  0  0  0  0  0  0  0  0
    1.1240    5.8100   19.8220 H   0  0  0  0  0  0  0  0  0  0  0  0
    1.9490    3.1430   21.8440 C   0  0  0  0  0  0  0  0  0  0  0  0
    3.0360    3.0740   21.7300 H   0  0  0  0  0  0  0  0  0  0  0  0
    1.7290    3.7120   22.7540 H   0  0  0  0  0  0  0  0  0  0  0  0
    1.5870    2.1200   21.9950 H   0  0  0  0  0  0  0  0  0  0  0  0
  1  4  1  0  0  0  0
  1  2  1  0  0  0  0
  1 19  1  0  0  0  0
  3  1  1  0  0  0  0
  4  5  2  0  0  0  0
  5 13  1  0  0  0  0
  6  5  1  0  0  0  0
  6 14  1  0  0  0  0
  7  6  1  0  0  0  0
  8 15  1  0  0  0  0
  8  7  2  0  0  0  0
  9  8  1  0  0  0  0
 10  9  2  0  0  0  0
 10 11  1  0  0  0  0
 11 12  2  0  0  0  0
 12  7  1  0  0  0  0
 12  4  1  0  0  0  0
 16  9  1  0  0  0  0
 17 10  1  0  0  0  0
 18 11  1  0  0  0  0
 19 24  1  0  0  0  0
 20 23  1  0  0  0  0
 20 19  1  0  0  0  0
 21 20  1  0  0  0  0
 22 20  1  0  0  0  0
 24 25  1  0  0  0  0
 24 26  1  0  0  0  0
 24 30  1  0  0  0  0
 26 27  1  0  0  0  0
 26 28  1  0  0  0  0
 29 26  1  0  0  0  0
 30 33  1  0  0  0  0
 30 32  1  0  0  0  0
 31 30  1  0  0  0  0
M  END
>  <MODEL>
9

>  <REMARK>
 VINA RESULT:    -5.626      1.638      5.513
 INTER + INTRA:          -7.555
 INTER:                  -7.269
 INTRA:                  -0.286
 UNBOUND:                -0.449
  Name = 
  6 active torsions:
  status: ('A' for Active; 'I' for Inactive)
    1  A    between atoms: C_1  and  C_2
    2  A    between atoms: C_2  and  C_3
    3  A    between atoms: C_2  and  N_4
    4  A    between atoms: N_4  and  C_5
    5  A    between atoms: N_4  and  C_6
    6  A    between atoms: C_6  and  C_7
                            x       y       z     vdW  Elec       q    Type
                         _______ _______ _______ _____ _____    ______ ____

>  <TORSDO>
F 6

$$$$
=
 OpenBabel07192307433D

 33 34  0  0  0  0  0  0  0  0999 V2000
    2.6400    4.2840   18.1790 C   0  0  0  0  0  0  0  0  0  0  0  0
    2.5990    5.2640   18.6630 H   0  0  0  0  0  0  0  0  0  0  0  0
    1.8560    4.2870   17.4120 H   0  0  0  0  0  0  0  0  0  0  0  0
    4.0080    4.1870   17.5660 C   0  0  0  0  0  0  0  0  0  0  0  0
    4.3270    3.5970   16.3560 C   0  0  0  0  0  0  0  0  0  0  0  0
    5.6740    3.7090   16.1590 N   0  0  0  0  0  0  0  0  0  0  0  0
    6.2590    4.3520   17.2250 C   0  0  0  0  0  0  0  0  0  0  0  0
    7.6020    4.6770   17.4540 C   0  0  0  0  0  0  0  0  0  0  0  0
    7.9140    5.3410   18.6420 C   0  0  0  0  0  0  0  0  0  0  0  0
    6.9220    5.6680   19.5630 C   0  0  0  0  0  0  0  0  0  0  0  0
    5.5840    5.3360   19.3180 C   0  0  0  0  0  0  0  0  0  0  0  0
    5.2400    4.6640   18.1270 C   0  0  0  0  0  0  0  0  0  0  0  0
    3.6940    3.1190   15.6200 H   0  0  0  0  0  0  0  0  0  0  0  0
    6.1740    3.3720   15.3490 H   0  0  0  0  0  0  0  0  0  0  0  0
    8.3760    4.4250   16.7380 H   0  0  0  0  0  0  0  0  0  0  0  0
    8.9480    5.6080   18.8500 H   0  0  0  0  0  0  0  0  0  0  0  0
    7.1860    6.1860   20.4820 H   0  0  0  0  0  0  0  0  0  0  0  0
    4.8210    5.5990   20.0440 H   0  0  0  0  0  0  0  0  0  0  0  0
    2.4190    3.1850   19.1480 N   0  0  0  0  0  0  0  0  0  0  0  0
    1.1690    2.4870   18.8180 C   0  0  0  0  0  0  0  0  0  0  0  0
    0.3190    2.9290   19.3470 H   0  0  0  0  0  0  0  0  0  0  0  0
    1.1840    1.4410   19.1420 H   0  0  0  0  0  0  0  0  0  0  0  0
    0.9640    2.5050   17.7410 H   0  0  0  0  0  0  0  0  0  0  0  0
    2.4400    3.6900   20.5460 C   0  0  0  0  0  0  0  0  0  0  0  0
    3.4670    3.6600   20.9320 H   0  0  0  0  0  0  0  0  0  0  0  0
    1.5480    2.8200   21.4500 C   0  0  0  0  0  0  0  0  0  0  0  0
    1.5750    1.7630   21.1740 H   0  0  0  0  0  0  0  0  0  0  0  0
    0.5050    3.1540   21.4170 H   0  0  0  0  0  0  0  0  0  0  0  0
    1.8820    2.8740   22.4920 H   0  0  0  0  0  0  0  0  0  0  0  0
    1.9440    5.1410   20.6880 C   0  0  0  0  0  0  0  0  0  0  0  0
    1.7830    5.4120   21.7360 H   0  0  0  0  0  0  0  0  0  0  0  0
    2.6530    5.8510   20.2490 H   0  0  0  0  0  0  0  0  0  0  0  0
    0.9820    5.2750   20.1800 H   0  0  0  0  0  0  0  0  0  0  0  0
  1  2  1  0  0  0  0
  1 19  1  0  0  0  0
  3  1  1  0  0  0  0
  4 12  1  0  0  0  0
  4  1  1  0  0  0  0
  5  4  2  0  0  0  0
  6  5  1  0  0  0  0
  6  7  1  0  0  0  0
  7  8  2  0  0  0  0
  7 12  1  0  0  0  0
  8  9  1  0  0  0  0
  9 16  1  0  0  0  0
  9 10  2  0  0  0  0
 10 17  1  0  0  0  0
 11 10  1  0  0  0  0
 11 18  1  0  0  0  0
 12 11  2  0  0  0  0
 13  5  1  0  0  0  0
 14  6  1  0  0  0  0
 15  8  1  0  0  0  0
 19 24  1  0  0  0  0
 20 22  1  0  0  0  0
 20 19  1  0  0  0  0
 20 21  1  0  0  0  0
 23 20  1  0  0  0  0
 24 30  1  0  0  0  0
 24 25  1  0  0  0  0
 24 26  1  0  0  0  0
 26 29  1  0  0  0  0
 27 26  1  0  0  0  0
 28 26  1  0  0  0  0
 30 31  1  0  0  0  0
 32 30  1  0  0  0  0
 33 30  1  0  0  0  0
M  END
>  <MODEL>
10

>  <REMARK>
 VINA RESULT:    -5.616      1.553      5.478
 INTER + INTRA:          -7.542
 INTER:                  -7.063
 INTRA:                  -0.479
 UNBOUND:                -0.449
  Name = 
  6 active torsions:
  status: ('A' for Active; 'I' for Inactive)
    1  A    between atoms: C_1  and  C_2
    2  A    between atoms: C_2  and  C_3
    3  A    between atoms: C_2  and  N_4
    4  A    between atoms: N_4  and  C_5
    5  A    between atoms: N_4  and  C_6
    6  A    between atoms: C_6  and  C_7
                            x       y       z     vdW  Elec       q    Type
                         _______ _______ _______ _____ _____    ______ ____

>  <TORSDO>
F 6

$$$$
=
 OpenBabel07192307433D

 33 34  0  0  0  0  0  0  0  0999 V2000
    2.4100    3.5040   17.9380 C   0  0  0  0  0  0  0  0  0  0  0  0
    1.3650    3.7730   18.1200 H   0  0  0  0  0  0  0  0  0  0  0  0
    2.4240    2.9520   16.9900 H   0  0  0  0  0  0  0  0  0  0  0  0
    3.1540    4.8040   17.8270 C   0  0  0  0  0  0  0  0  0  0  0  0
    2.6690    6.0590   18.1510 C   0  0  0  0  0  0  0  0  0  0  0  0
    3.6470    6.9800   17.9020 N   0  0  0  0  0  0  0  0  0  0  0  0
    4.7690    6.3600   17.4040 C   0  0  0  0  0  0  0  0  0  0  0  0
    5.9970    6.9050   17.0080 C   0  0  0  0  0  0  0  0  0  0  0  0
    6.9730    6.0250   16.5330 C   0  0  0  0  0  0  0  0  0  0  0  0
    6.7290    4.6560   16.4590 C   0  0  0  0  0  0  0  0  0  0  0  0
    5.4960    4.1290   16.8600 C   0  0  0  0  0  0  0  0  0  0  0  0
    4.4910    4.9930   17.3430 C   0  0  0  0  0  0  0  0  0  0  0  0
    1.7100    6.3590   18.5510 H   0  0  0  0  0  0  0  0  0  0  0  0
    3.5640    7.9740   18.0610 H   0  0  0  0  0  0  0  0  0  0  0  0
    6.1910    7.9700   17.0660 H   0  0  0  0  0  0  0  0  0  0  0  0
    7.9380    6.4150   16.2180 H   0  0  0  0  0  0  0  0  0  0  0  0
    7.5020    3.9880   16.0880 H   0  0  0  0  0  0  0  0  0  0  0  0
    5.3200    3.0590   16.7990 H   0  0  0  0  0  0  0  0  0  0  0  0
    2.9620    2.6750   19.0350 N   0  0  0  0  0  0  0  0  0  0  0  0
    3.5320    1.4420   18.4750 C   0  0  0  0  0  0  0  0  0  0  0  0
    4.4270    1.6550   17.8820 H   0  0  0  0  0  0  0  0  0  0  0  0
    2.8460    0.9520   17.7750 H   0  0  0  0  0  0  0  0  0  0  0  0
    3.7890    0.7190   19.2580 H   0  0  0  0  0  0  0  0  0  0  0  0
    1.9350    2.4080   20.0750 C   0  0  0  0  0  0  0  0  0  0  0  0
    1.7130    1.3330   20.1050 H   0  0  0  0  0  0  0  0  0  0  0  0
    0.6330    3.1690   19.7620 C   0  0  0  0  0  0  0  0  0  0  0  0
   -0.1170    3.0570   20.5480 H   0  0  0  0  0  0  0  0  0  0  0  0
    0.1920    2.8280   18.8180 H   0  0  0  0  0  0  0  0  0  0  0  0
    0.8250    4.2440   19.6700 H   0  0  0  0  0  0  0  0  0  0  0  0
    2.3670    2.8230   21.4930 C   0  0  0  0  0  0  0  0  0  0  0  0
    1.5900    3.4030   22.0000 H   0  0  0  0  0  0  0  0  0  0  0  0
    2.6090    1.9500   22.1090 H   0  0  0  0  0  0  0  0  0  0  0  0
    3.2580    3.4620   21.4570 H   0  0  0  0  0  0  0  0  0  0  0  0
  1  2  1  0  0  0  0
  1 19  1  0  0  0  0
  3  1  1  0  0  0  0
  4  1  1  0  0  0  0
  4  5  2  0  0  0  0
  5 13  1  0  0  0  0
  6 14  1  0  0  0  0
  6  5  1  0  0  0  0
  7  6  1  0  0  0  0
  8 15  1  0  0  0  0
  8  7  2  0  0  0  0
  9  8  1  0  0  0  0
 10  9  2  0  0  0  0
 10 11  1  0  0  0  0
 11 12  2  0  0  0  0
 12  7  1  0  0  0  0
 12  4  1  0  0  0  0
 16  9  1  0  0  0  0
 17 10  1  0  0  0  0
 18 11  1  0  0  0  0
 19 24  1  0  0  0  0
 20 19  1  0  0  0  0
 20 23  1  0  0  0  0
 21 20  1  0  0  0  0
 22 20  1  0  0  0  0
 24 25  1  0  0  0  0
 24 30  1  0  0  0  0
 26 24  1  0  0  0  0
 26 27  1  0  0  0  0
 28 26  1  0  0  0  0
 29 26  1  0  0  0  0
 30 31  1  0  0  0  0
 30 32  1  0  0  0  0
 33 30  1  0  0  0  0
M  END
>  <MODEL>
11

>  <REMARK>
 VINA RESULT:    -5.604      1.665      5.270
 INTER + INTRA:          -7.528
 INTER:                  -7.154
 INTRA:                  -0.373
 UNBOUND:                -0.449
  Name = 
  6 active torsions:
  status: ('A' for Active; 'I' for Inactive)
    1  A    between atoms: C_1  and  C_2
    2  A    between atoms: C_2  and  C_3
    3  A    between atoms: C_2  and  N_4
    4  A    between atoms: N_4  and  C_5
    5  A    between atoms: N_4  and  C_6
    6  A    between atoms: C_6  and  C_7
                            x       y       z     vdW  Elec       q    Type
                         _______ _______ _______ _____ _____    ______ ____

>  <TORSDO>
F 6

$$$$
=
 OpenBabel07192307433D

 33 34  0  0  0  0  0  0  0  0999 V2000
    3.9460    4.0680   19.3730 C   0  0  0  0  0  0  0  0  0  0  0  0
    3.8960    3.0010   19.1390 H   0  0  0  0  0  0  0  0  0  0  0  0
    4.0360    4.1400   20.4630 H   0  0  0  0  0  0  0  0  0  0  0  0
    5.1790    4.5800   18.6850 C   0  0  0  0  0  0  0  0  0  0  0  0
    6.2330    5.2520   19.2780 C   0  0  0  0  0  0  0  0  0  0  0  0
    7.1540    5.5530   18.3150 N   0  0  0  0  0  0  0  0  0  0  0  0
    6.7230    5.1060   17.0880 C   0  0  0  0  0  0  0  0  0  0  0  0
    7.3340    5.1990   15.8310 C   0  0  0  0  0  0  0  0  0  0  0  0
    6.6580    4.6470   14.7400 C   0  0  0  0  0  0  0  0  0  0  0  0
    5.4220    4.0270   14.9020 C   0  0  0  0  0  0  0  0  0  0  0  0
    4.8260    3.9420   16.1660 C   0  0  0  0  0  0  0  0  0  0  0  0
    5.4860    4.4910   17.2860 C   0  0  0  0  0  0  0  0  0  0  0  0
    6.3990    5.5240   20.3120 H   0  0  0  0  0  0  0  0  0  0  0  0
    8.0280    6.0340   18.4760 H   0  0  0  0  0  0  0  0  0  0  0  0
    8.2970    5.6800   15.7020 H   0  0  0  0  0  0  0  0  0  0  0  0
    7.1050    4.7020   13.7500 H   0  0  0  0  0  0  0  0  0  0  0  0
    4.9120    3.6030   14.0400 H   0  0  0  0  0  0  0  0  0  0  0  0
    3.8630    3.4530   16.2780 H   0  0  0  0  0  0  0  0  0  0  0  0
    2.7420    4.7900   18.8980 N   0  0  0  0  0  0  0  0  0  0  0  0
    2.4750    5.9300   19.7860 C   0  0  0  0  0  0  0  0  0  0  0  0
    3.3490    6.5860   19.8590 H   0  0  0  0  0  0  0  0  0  0  0  0
    2.2800    5.6130   20.8160 H   0  0  0  0  0  0  0  0  0  0  0  0
    1.6170    6.5210   19.4450 H   0  0  0  0  0  0  0  0  0  0  0  0
    1.5780    3.8730   18.7810 C   0  0  0  0  0  0  0  0  0  0  0  0
    0.8180    4.3270   18.1310 H   0  0  0  0  0  0  0  0  0  0  0  0
    0.9510    3.6110   20.1620 C   0  0  0  0  0  0  0  0  0  0  0  0
    0.1380    4.3050   20.3920 H   0  0  0  0  0  0  0  0  0  0  0  0
    1.7010    3.6890   20.9580 H   0  0  0  0  0  0  0  0  0  0  0  0
    0.5200    2.6050   20.2080 H   0  0  0  0  0  0  0  0  0  0  0  0
    1.9290    2.5000   18.1790 C   0  0  0  0  0  0  0  0  0  0  0  0
    1.7380    1.6870   18.8870 H   0  0  0  0  0  0  0  0  0  0  0  0
    1.3600    2.3070   17.2630 H   0  0  0  0  0  0  0  0  0  0  0  0
    2.9950    2.4470   17.9250 H   0  0  0  0  0  0  0  0  0  0  0  0
  1  3  1  0  0  0  0
  2  1  1  0  0  0  0
  4  5  2  0  0  0  0
  4  1  1  0  0  0  0
  5 13  1  0  0  0  0
  6 14  1  0  0  0  0
  6  5  1  0  0  0  0
  7 12  1  0  0  0  0
  7  6  1  0  0  0  0
  8  7  2  0  0  0  0
  9 10  2  0  0  0  0
  9  8  1  0  0  0  0
 10 11  1  0  0  0  0
 11 18  1  0  0  0  0
 11 12  2  0  0  0  0
 12  4  1  0  0  0  0
 15  8  1  0  0  0  0
 16  9  1  0  0  0  0
 17 10  1  0  0  0  0
 19  1  1  0  0  0  0
 19 20  1  0  0  0  0
 20 21  1  0  0  0  0
 20 22  1  0  0  0  0
 23 20  1  0  0  0  0
 24 19  1  0  0  0  0
 24 26  1  0  0  0  0
 25 24  1  0  0  0  0
 26 29  1  0  0  0  0
 26 27  1  0  0  0  0
 26 28  1  0  0  0  0
 30 24  1  0  0  0  0
 30 31  1  0  0  0  0
 32 30  1  0  0  0  0
 33 30  1  0  0  0  0
M  END
>  <MODEL>
12

>  <REMARK>
 VINA RESULT:    -5.588      1.431      5.291
 INTER + INTRA:          -7.508
 INTER:                  -7.041
 INTRA:                  -0.466
 UNBOUND:                -0.449
  Name = 
  6 active torsions:
  status: ('A' for Active; 'I' for Inactive)
    1  A    between atoms: C_1  and  C_2
    2  A    between atoms: C_2  and  C_3
    3  A    between atoms: C_2  and  N_4
    4  A    between atoms: N_4  and  C_5
    5  A    between atoms: N_4  and  C_6
    6  A    between atoms: C_6  and  C_7
                            x       y       z     vdW  Elec       q    Type
                         _______ _______ _______ _____ _____    ______ ____

>  <TORSDO>
F 6

$$$$
=
 OpenBabel07192307433D

 33 34  0  0  0  0  0  0  0  0999 V2000
    3.2620    4.1750   19.3990 C   0  0  0  0  0  0  0  0  0  0  0  0
    3.3110    3.2200   18.8670 H   0  0  0  0  0  0  0  0  0  0  0  0
    3.8030    4.0280   20.3420 H   0  0  0  0  0  0  0  0  0  0  0  0
    3.9580    5.1710   18.5170 C   0  0  0  0  0  0  0  0  0  0  0  0
    3.3970    5.8650   17.4590 C   0  0  0  0  0  0  0  0  0  0  0  0
    4.3570    6.6660   16.9070 N   0  0  0  0  0  0  0  0  0  0  0  0
    5.5500    6.5050   17.5710 C   0  0  0  0  0  0  0  0  0  0  0  0
    6.7930    7.1120   17.3490 C   0  0  0  0  0  0  0  0  0  0  0  0
    7.8490    6.7540   18.1900 C   0  0  0  0  0  0  0  0  0  0  0  0
    7.6670    5.8270   19.2130 C   0  0  0  0  0  0  0  0  0  0  0  0
    6.4180    5.2300   19.4220 C   0  0  0  0  0  0  0  0  0  0  0  0
    5.3340    5.5720   18.5860 C   0  0  0  0  0  0  0  0  0  0  0  0
    2.3880    5.8570   17.0700 H   0  0  0  0  0  0  0  0  0  0  0  0
    4.2150    7.2890   16.1260 H   0  0  0  0  0  0  0  0  0  0  0  0
    6.9370    7.8360   16.5540 H   0  0  0  0  0  0  0  0  0  0  0  0
    8.8270    7.2080   18.0450 H   0  0  0  0  0  0  0  0  0  0  0  0
    8.5020    5.5620   19.8580 H   0  0  0  0  0  0  0  0  0  0  0  0
    6.2910    4.5100   20.2240 H   0  0  0  0  0  0  0  0  0  0  0  0
    1.8630    4.5870   19.6560 N   0  0  0  0  0  0  0  0  0  0  0  0
    1.8410    5.6060   20.7150 C   0  0  0  0  0  0  0  0  0  0  0  0
    1.8580    6.6150   20.2930 H   0  0  0  0  0  0  0  0  0  0  0  0
    2.7320    5.5570   21.3510 H   0  0  0  0  0  0  0  0  0  0  0  0
    0.9600    5.5060   21.3600 H   0  0  0  0  0  0  0  0  0  0  0  0
    1.0070    3.4150   19.9740 C   0  0  0  0  0  0  0  0  0  0  0  0
   -0.0260    3.7480   20.1380 H   0  0  0  0  0  0  0  0  0  0  0  0
    1.5050    2.7080   21.2480 C   0  0  0  0  0  0  0  0  0  0  0  0
    1.9170    1.7170   21.0440 H   0  0  0  0  0  0  0  0  0  0  0  0
    0.6960    2.5960   21.9800 H   0  0  0  0  0  0  0  0  0  0  0  0
    2.3060    3.2840   21.7230 H   0  0  0  0  0  0  0  0  0  0  0  0
    0.9690    2.3550   18.8580 C   0  0  0  0  0  0  0  0  0  0  0  0
    0.5890    2.7690   17.9190 H   0  0  0  0  0  0  0  0  0  0  0  0
    1.9620    1.9300   18.6750 H   0  0  0  0  0  0  0  0  0  0  0  0
    0.2990    1.5300   19.1270 H   0  0  0  0  0  0  0  0  0  0  0  0
  1 19  1  0  0  0  0
  1  3  1  0  0  0  0
  2  1  1  0  0  0  0
  4 12  1  0  0  0  0
  4  1  1  0  0  0  0
  5  4  2  0  0  0  0
  6  5  1  0  0  0  0
  6  7  1  0  0  0  0
  7 12  1  0  0  0  0
  8  7  2  0  0  0  0
  8  9  1  0  0  0  0
  9 10  2  0  0  0  0
 10 11  1  0  0  0  0
 10 17  1  0  0  0  0
 11 18  1  0  0  0  0
 12 11  2  0  0  0  0
 13  5  1  0  0  0  0
 14  6  1  0  0  0  0
 15  8  1  0  0  0  0
 16  9  1  0  0  0  0
 19 24  1  0  0  0  0
 19 20  1  0  0  0  0
 20 22  1  0  0  0  0
 20 23  1  0  0  0  0
 21 20  1  0  0  0  0
 24 25  1  0  0  0  0
 24 26  1  0  0  0  0
 26 29  1  0  0  0  0
 26 28  1  0  0  0  0
 27 26  1  0  0  0  0
 30 33  1  0  0  0  0
 30 24  1  0  0  0  0
 31 30  1  0  0  0  0
 32 30  1  0  0  0  0
M  END
>  <MODEL>
13

>  <REMARK>
 VINA RESULT:    -5.587      1.399      5.711
 INTER + INTRA:          -7.506
 INTER:                  -7.219
 INTRA:                  -0.286
 UNBOUND:                -0.449
  Name = 
  6 active torsions:
  status: ('A' for Active; 'I' for Inactive)
    1  A    between atoms: C_1  and  C_2
    2  A    between atoms: C_2  and  C_3
    3  A    between atoms: C_2  and  N_4
    4  A    between atoms: N_4  and  C_5
    5  A    between atoms: N_4  and  C_6
    6  A    between atoms: C_6  and  C_7
                            x       y       z     vdW  Elec       q    Type
                         _______ _______ _______ _____ _____    ______ ____

>  <TORSDO>
F 6

$$$$
=
 OpenBabel07192307433D

 33 34  0  0  0  0  0  0  0  0999 V2000
    3.3930    2.5940   18.0740 C   0  0  0  0  0  0  0  0  0  0  0  0
    2.4360    2.4590   17.5630 H   0  0  0  0  0  0  0  0  0  0  0  0
    4.0010    1.7150   17.8260 H   0  0  0  0  0  0  0  0  0  0  0  0
    3.9870    3.8510   17.5060 C   0  0  0  0  0  0  0  0  0  0  0  0
    5.1020    3.9380   16.6900 C   0  0  0  0  0  0  0  0  0  0  0  0
    5.3220    5.2530   16.3940 N   0  0  0  0  0  0  0  0  0  0  0  0
    4.3820    6.0440   17.0120 C   0  0  0  0  0  0  0  0  0  0  0  0
    4.2250    7.4360   16.9950 C   0  0  0  0  0  0  0  0  0  0  0  0
    3.1630    7.9770   17.7250 C   0  0  0  0  0  0  0  0  0  0  0  0
    2.2950    7.1580   18.4410 C   0  0  0  0  0  0  0  0  0  0  0  0
    2.4660    5.7680   18.4460 C   0  0  0  0  0  0  0  0  0  0  0  0
    3.5290    5.1940   17.7190 C   0  0  0  0  0  0  0  0  0  0  0  0
    5.7410    3.1620   16.2900 H   0  0  0  0  0  0  0  0  0  0  0  0
    6.0660    5.6000   15.8060 H   0  0  0  0  0  0  0  0  0  0  0  0
    4.8980    8.0760   16.4370 H   0  0  0  0  0  0  0  0  0  0  0  0
    3.0130    9.0540   17.7330 H   0  0  0  0  0  0  0  0  0  0  0  0
    1.4740    7.5980   19.0020 H   0  0  0  0  0  0  0  0  0  0  0  0
    1.7790    5.1410   19.0080 H   0  0  0  0  0  0  0  0  0  0  0  0
    3.2180    2.7120   19.5410 N   0  0  0  0  0  0  0  0  0  0  0  0
    4.3310    2.0350   20.2210 C   0  0  0  0  0  0  0  0  0  0  0  0
    4.5290    1.0550   19.7740 H   0  0  0  0  0  0  0  0  0  0  0  0
    4.1020    1.8190   21.2700 H   0  0  0  0  0  0  0  0  0  0  0  0
    5.2510    2.6300   20.1910 H   0  0  0  0  0  0  0  0  0  0  0  0
    1.8910    2.1980   19.9670 C   0  0  0  0  0  0  0  0  0  0  0  0
    1.9640    1.1230   20.1780 H   0  0  0  0  0  0  0  0  0  0  0  0
    0.8440    2.4120   18.8590 C   0  0  0  0  0  0  0  0  0  0  0  0
    1.1850    2.0520   17.8850 H   0  0  0  0  0  0  0  0  0  0  0  0
    0.5850    3.4720   18.7580 H   0  0  0  0  0  0  0  0  0  0  0  0
   -0.0770    1.8640   19.0840 H   0  0  0  0  0  0  0  0  0  0  0  0
    1.3440    2.8730   21.2380 C   0  0  0  0  0  0  0  0  0  0  0  0
    1.6990    3.9040   21.3340 H   0  0  0  0  0  0  0  0  0  0  0  0
    0.2490    2.8790   21.2490 H   0  0  0  0  0  0  0  0  0  0  0  0
    1.6830    2.3440   22.1370 H   0  0  0  0  0  0  0  0  0  0  0  0
  1 19  1  0  0  0  0
  2  1  1  0  0  0  0
  3  1  1  0  0  0  0
  4 12  1  0  0  0  0
  4  1  1  0  0  0  0
  5  4  2  0  0  0  0
  6  5  1  0  0  0  0
  6  7  1  0  0  0  0
  7 12  1  0  0  0  0
  8  7  2  0  0  0  0
  8  9  1  0  0  0  0
  9 16  1  0  0  0  0
  9 10  2  0  0  0  0
 10 11  1  0  0  0  0
 10 17  1  0  0  0  0
 11 18  1  0  0  0  0
 12 11  2  0  0  0  0
 13  5  1  0  0  0  0
 14  6  1  0  0  0  0
 15  8  1  0  0  0  0
 19 24  1  0  0  0  0
 19 20  1  0  0  0  0
 20 22  1  0  0  0  0
 21 20  1  0  0  0  0
 23 20  1  0  0  0  0
 24 25  1  0  0  0  0
 24 30  1  0  0  0  0
 26 29  1  0  0  0  0
 26 24  1  0  0  0  0
 27 26  1  0  0  0  0
 28 26  1  0  0  0  0
 30 32  1  0  0  0  0
 30 31  1  0  0  0  0
 30 33  1  0  0  0  0
M  END
>  <MODEL>
14

>  <REMARK>
 VINA RESULT:    -5.556      1.934      5.106
 INTER + INTRA:          -7.468
 INTER:                  -7.016
 INTRA:                  -0.452
 UNBOUND:                -0.449
  Name = 
  6 active torsions:
  status: ('A' for Active; 'I' for Inactive)
    1  A    between atoms: C_1  and  C_2
    2  A    between atoms: C_2  and  C_3
    3  A    between atoms: C_2  and  N_4
    4  A    between atoms: N_4  and  C_5
    5  A    between atoms: N_4  and  C_6
    6  A    between atoms: C_6  and  C_7
                            x       y       z     vdW  Elec       q    Type
                         _______ _______ _______ _____ _____    ______ ____

>  <TORSDO>
F 6

$$$$
=
 OpenBabel07192307433D

 33 34  0  0  0  0  0  0  0  0999 V2000
    2.8330    2.8930   18.0630 C   0  0  0  0  0  0  0  0  0  0  0  0
    2.6360    2.7230   17.0000 H   0  0  0  0  0  0  0  0  0  0  0  0
    2.7750    1.9110   18.5480 H   0  0  0  0  0  0  0  0  0  0  0  0
    4.2220    3.4600   18.1350 C   0  0  0  0  0  0  0  0  0  0  0  0
    4.9770    3.6450   19.2800 C   0  0  0  0  0  0  0  0  0  0  0  0
    6.1780    4.1890   18.9260 N   0  0  0  0  0  0  0  0  0  0  0  0
    6.2300    4.3830   17.5650 C   0  0  0  0  0  0  0  0  0  0  0  0
    7.2530    4.9160   16.7700 C   0  0  0  0  0  0  0  0  0  0  0  0
    7.0300    4.9950   15.3940 C   0  0  0  0  0  0  0  0  0  0  0  0
    5.8310    4.5590   14.8360 C   0  0  0  0  0  0  0  0  0  0  0  0
    4.8190    4.0280   15.6460 C   0  0  0  0  0  0  0  0  0  0  0  0
    5.0170    3.9370   17.0390 C   0  0  0  0  0  0  0  0  0  0  0  0
    4.7510    3.4170   20.3130 H   0  0  0  0  0  0  0  0  0  0  0  0
    6.9250    4.4170   19.5660 H   0  0  0  0  0  0  0  0  0  0  0  0
    8.1880    5.2550   17.2020 H   0  0  0  0  0  0  0  0  0  0  0  0
    7.8040    5.4030   14.7480 H   0  0  0  0  0  0  0  0  0  0  0  0
    5.6760    4.6280   13.7620 H   0  0  0  0  0  0  0  0  0  0  0  0
    3.8900    3.6900   15.1970 H   0  0  0  0  0  0  0  0  0  0  0  0
    1.8520    3.8300   18.6580 N   0  0  0  0  0  0  0  0  0  0  0  0
    1.9230    5.1210   17.9590 C   0  0  0  0  0  0  0  0  0  0  0  0
    2.6470    5.7890   18.4360 H   0  0  0  0  0  0  0  0  0  0  0  0
    0.9730    5.6650   18.0020 H   0  0  0  0  0  0  0  0  0  0  0  0
    2.1960    4.9990   16.9040 H   0  0  0  0  0  0  0  0  0  0  0  0
    2.0570    3.9630   20.1240 C   0  0  0  0  0  0  0  0  0  0  0  0
    3.1130    3.7830   20.3640 H   0  0  0  0  0  0  0  0  0  0  0  0
    1.1980    2.9400   20.8880 C   0  0  0  0  0  0  0  0  0  0  0  0
    1.1680    3.1370   21.9630 H   0  0  0  0  0  0  0  0  0  0  0  0
    1.5700    1.9200   20.7390 H   0  0  0  0  0  0  0  0  0  0  0  0
    0.1590    2.9690   20.5410 H   0  0  0  0  0  0  0  0  0  0  0  0
    1.6970    5.3540   20.6760 C   0  0  0  0  0  0  0  0  0  0  0  0
    1.8870    6.1430   19.9420 H   0  0  0  0  0  0  0  0  0  0  0  0
    0.6450    5.4050   20.9790 H   0  0  0  0  0  0  0  0  0  0  0  0
    2.3070    5.5940   21.5550 H   0  0  0  0  0  0  0  0  0  0  0  0
  1  4  1  0  0  0  0
  1  3  1  0  0  0  0
  1 19  1  0  0  0  0
  2  1  1  0  0  0  0
  4  5  2  0  0  0  0
  5 13  1  0  0  0  0
  6  5  1  0  0  0  0
  6 14  1  0  0  0  0
  7  6  1  0  0  0  0
  8 15  1  0  0  0  0
  8  7  2  0  0  0  0
  9  8  1  0  0  0  0
 10  9  2  0  0  0  0
 10 11  1  0  0  0  0
 11 12  2  0  0  0  0
 12  7  1  0  0  0  0
 12  4  1  0  0  0  0
 16  9  1  0  0  0  0
 17 10  1  0  0  0  0
 18 11  1  0  0  0  0
 19 24  1  0  0  0  0
 20 22  1  0  0  0  0
 20 21  1  0  0  0  0
 20 19  1  0  0  0  0
 23 20  1  0  0  0  0
 24 25  1  0  0  0  0
 24 30  1  0  0  0  0
 24 26  1  0  0  0  0
 26 27  1  0  0  0  0
 28 26  1  0  0  0  0
 29 26  1  0  0  0  0
 30 32  1  0  0  0  0
 30 33  1  0  0  0  0
 31 30  1  0  0  0  0
M  END
>  <MODEL>
15

>  <REMARK>
 VINA RESULT:    -5.394      1.648      5.189
 INTER + INTRA:          -7.263
 INTER:                  -7.427
 INTRA:                   0.164
 UNBOUND:                -0.449
  Name = 
  6 active torsions:
  status: ('A' for Active; 'I' for Inactive)
    1  A    between atoms: C_1  and  C_2
    2  A    between atoms: C_2  and  C_3
    3  A    between atoms: C_2  and  N_4
    4  A    between atoms: N_4  and  C_5
    5  A    between atoms: N_4  and  C_6
    6  A    between atoms: C_6  and  C_7
                            x       y       z     vdW  Elec       q    Type
                         _______ _______ _______ _____ _____    ______ ____

>  <TORSDO>
F 6

$$$$
=
 OpenBabel07192307433D

 33 34  0  0  0  0  0  0  0  0999 V2000
    3.9960    5.1590   17.6120 C   0  0  0  0  0  0  0  0  0  0  0  0
    4.1880    4.1310   17.9310 H   0  0  0  0  0  0  0  0  0  0  0  0
    3.3760    5.0910   16.7100 H   0  0  0  0  0  0  0  0  0  0  0  0
    3.2500    5.8060   18.7430 C   0  0  0  0  0  0  0  0  0  0  0  0
    3.0330    5.2680   20.0000 C   0  0  0  0  0  0  0  0  0  0  0  0
    2.3090    6.1620   20.7360 N   0  0  0  0  0  0  0  0  0  0  0  0
    2.0270    7.2790   19.9850 C   0  0  0  0  0  0  0  0  0  0  0  0
    1.3120    8.4350   20.3250 C   0  0  0  0  0  0  0  0  0  0  0  0
    1.1810    9.4260   19.3490 C   0  0  0  0  0  0  0  0  0  0  0  0
    1.7430    9.2660   18.0850 C   0  0  0  0  0  0  0  0  0  0  0  0
    2.4550    8.1050   17.7630 C   0  0  0  0  0  0  0  0  0  0  0  0
    2.6030    7.0870   18.7280 C   0  0  0  0  0  0  0  0  0  0  0  0
    3.3520    4.3260   20.4240 H   0  0  0  0  0  0  0  0  0  0  0  0
    2.0200    6.0280   21.6940 H   0  0  0  0  0  0  0  0  0  0  0  0
    0.8750    8.5630   21.3080 H   0  0  0  0  0  0  0  0  0  0  0  0
    0.6320   10.3360   19.5800 H   0  0  0  0  0  0  0  0  0  0  0  0
    1.6300   10.0490   17.3400 H   0  0  0  0  0  0  0  0  0  0  0  0
    2.8900    7.9940   16.7740 H   0  0  0  0  0  0  0  0  0  0  0  0
    5.2550    5.8880   17.3270 N   0  0  0  0  0  0  0  0  0  0  0  0
    5.3160    6.2150   15.8960 C   0  0  0  0  0  0  0  0  0  0  0  0
    4.3580    6.0190   15.4050 H   0  0  0  0  0  0  0  0  0  0  0  0
    6.0360    5.5860   15.3610 H   0  0  0  0  0  0  0  0  0  0  0  0
    5.5930    7.2630   15.7280 H   0  0  0  0  0  0  0  0  0  0  0  0
    6.4380    5.1160   17.7880 C   0  0  0  0  0  0  0  0  0  0  0  0
    6.1100    4.2960   18.4400 H   0  0  0  0  0  0  0  0  0  0  0  0
    7.4010    6.0190   18.5800 C   0  0  0  0  0  0  0  0  0  0  0  0
    7.5770    5.6550   19.5960 H   0  0  0  0  0  0  0  0  0  0  0  0
    7.0180    7.0440   18.6480 H   0  0  0  0  0  0  0  0  0  0  0  0
    8.3820    6.0620   18.0940 H   0  0  0  0  0  0  0  0  0  0  0  0
    7.2520    4.4880   16.6420 C   0  0  0  0  0  0  0  0  0  0  0  0
    7.9050    5.2220   16.1590 H   0  0  0  0  0  0  0  0  0  0  0  0
    7.8680    3.6550   16.9980 H   0  0  0  0  0  0  0  0  0  0  0  0
    6.5890    4.1010   15.8600 H   0  0  0  0  0  0  0  0  0  0  0  0
  1  2  1  0  0  0  0
  1  4  1  0  0  0  0
  3  1  1  0  0  0  0
  4  5  2  0  0  0  0
  5 13  1  0  0  0  0
  5  6  1  0  0  0  0
  6 14  1  0  0  0  0
  7  8  1  0  0  0  0
  7  6  1  0  0  0  0
  8 15  1  0  0  0  0
  9 16  1  0  0  0  0
  9  8  2  0  0  0  0
 10  9  1  0  0  0  0
 11 10  2  0  0  0  0
 11 12  1  0  0  0  0
 12  4  1  0  0  0  0
 12  7  2  0  0  0  0
 17 10  1  0  0  0  0
 18 11  1  0  0  0  0
 19  1  1  0  0  0  0
 19 24  1  0  0  0  0
 20 19  1  0  0  0  0
 21 20  1  0  0  0  0
 22 20  1  0  0  0  0
 23 20  1  0  0  0  0
 24 25  1  0  0  0  0
 24 26  1  0  0  0  0
 26 28  1  0  0  0  0
 26 27  1  0  0  0  0
 29 26  1  0  0  0  0
 30 32  1  0  0  0  0
 30 24  1  0  0  0  0
 31 30  1  0  0  0  0
 33 30  1  0  0  0  0
M  END
>  <MODEL>
16

>  <REMARK>
 VINA RESULT:    -5.387      2.498      3.417
 INTER + INTRA:          -7.254
 INTER:                  -6.908
 INTRA:                  -0.346
 UNBOUND:                -0.449
  Name = 
  6 active torsions:
  status: ('A' for Active; 'I' for Inactive)
    1  A    between atoms: C_1  and  C_2
    2  A    between atoms: C_2  and  C_3
    3  A    between atoms: C_2  and  N_4
    4  A    between atoms: N_4  and  C_5
    5  A    between atoms: N_4  and  C_6
    6  A    between atoms: C_6  and  C_7
                            x       y       z     vdW  Elec       q    Type
                         _______ _______ _______ _____ _____    ______ ____

>  <TORSDO>
F 6

$$$$
=
 OpenBabel07192307433D

 33 34  0  0  0  0  0  0  0  0999 V2000
    3.4050    4.3240   19.9990 C   0  0  0  0  0  0  0  0  0  0  0  0
    4.1390    3.5320   19.8230 H   0  0  0  0  0  0  0  0  0  0  0  0
    3.6180    4.7240   20.9970 H   0  0  0  0  0  0  0  0  0  0  0  0
    3.6480    5.3520   18.9310 C   0  0  0  0  0  0  0  0  0  0  0  0
    3.1280    6.6340   18.8890 C   0  0  0  0  0  0  0  0  0  0  0  0
    3.5800    7.2490   17.7570 N   0  0  0  0  0  0  0  0  0  0  0  0
    4.3790    6.3930   17.0360 C   0  0  0  0  0  0  0  0  0  0  0  0
    5.0450    6.5930   15.8210 C   0  0  0  0  0  0  0  0  0  0  0  0
    5.8000    5.5320   15.3130 C   0  0  0  0  0  0  0  0  0  0  0  0
    5.8830    4.3210   15.9950 C   0  0  0  0  0  0  0  0  0  0  0  0
    5.2110    4.1390   17.2100 C   0  0  0  0  0  0  0  0  0  0  0  0
    4.4420    5.1930   17.7460 C   0  0  0  0  0  0  0  0  0  0  0  0
    2.4840    7.1520   19.5870 H   0  0  0  0  0  0  0  0  0  0  0  0
    3.3620    8.1960   17.4830 H   0  0  0  0  0  0  0  0  0  0  0  0
    4.9830    7.5350   15.2880 H   0  0  0  0  0  0  0  0  0  0  0  0
    6.3300    5.6550   14.3710 H   0  0  0  0  0  0  0  0  0  0  0  0
    6.4760    3.5080   15.5840 H   0  0  0  0  0  0  0  0  0  0  0  0
    5.2870    3.1900   17.7320 H   0  0  0  0  0  0  0  0  0  0  0  0
    2.0170    3.8090   19.9260 N   0  0  0  0  0  0  0  0  0  0  0  0
    1.6590    3.1910   21.2100 C   0  0  0  0  0  0  0  0  0  0  0  0
    1.9410    3.8340   22.0500 H   0  0  0  0  0  0  0  0  0  0  0  0
    2.2020    2.2560   21.3830 H   0  0  0  0  0  0  0  0  0  0  0  0
    0.5850    2.9760   21.2740 H   0  0  0  0  0  0  0  0  0  0  0  0
    1.8480    2.8800   18.7790 C   0  0  0  0  0  0  0  0  0  0  0  0
    1.9170    3.4420   17.8380 H   0  0  0  0  0  0  0  0  0  0  0  0
    0.4750    2.1870   18.8390 C   0  0  0  0  0  0  0  0  0  0  0  0
   -0.3520    2.8780   18.6550 H   0  0  0  0  0  0  0  0  0  0  0  0
    0.3130    1.7130   19.8130 H   0  0  0  0  0  0  0  0  0  0  0  0
    0.4000    1.4080   18.0730 H   0  0  0  0  0  0  0  0  0  0  0  0
    2.9110    1.7680   18.7210 C   0  0  0  0  0  0  0  0  0  0  0  0
    2.8470    1.1950   17.7900 H   0  0  0  0  0  0  0  0  0  0  0  0
    3.9240    2.1760   18.8100 H   0  0  0  0  0  0  0  0  0  0  0  0
    2.7680    1.0500   19.5370 H   0  0  0  0  0  0  0  0  0  0  0  0
  1  3  1  0  0  0  0
  2  1  1  0  0  0  0
  4  1  1  0  0  0  0
  5  4  2  0  0  0  0
  5 13  1  0  0  0  0
  6  5  1  0  0  0  0
  7 12  1  0  0  0  0
  7  6  1  0  0  0  0
  8  7  2  0  0  0  0
  9  8  1  0  0  0  0
  9 10  2  0  0  0  0
 10 11  1  0  0  0  0
 11 18  1  0  0  0  0
 11 12  2  0  0  0  0
 12  4  1  0  0  0  0
 14  6  1  0  0  0  0
 15  8  1  0  0  0  0
 16  9  1  0  0  0  0
 17 10  1  0  0  0  0
 19  1  1  0  0  0  0
 19 20  1  0  0  0  0
 20 23  1  0  0  0  0
 20 22  1  0  0  0  0
 20 21  1  0  0  0  0
 24 26  1  0  0  0  0
 24 19  1  0  0  0  0
 25 24  1  0  0  0  0
 26 28  1  0  0  0  0
 27 26  1  0  0  0  0
 29 26  1  0  0  0  0
 30 24  1  0  0  0  0
 30 32  1  0  0  0  0
 30 33  1  0  0  0  0
 31 30  1  0  0  0  0
M  END
>  <MODEL>
17

>  <REMARK>
 VINA RESULT:    -5.259      1.697      5.252
 INTER + INTRA:          -7.091
 INTER:                  -6.648
 INTRA:                  -0.444
 UNBOUND:                -0.449
  Name = 
  6 active torsions:
  status: ('A' for Active; 'I' for Inactive)
    1  A    between atoms: C_1  and  C_2
    2  A    between atoms: C_2  and  C_3
    3  A    between atoms: C_2  and  N_4
    4  A    between atoms: N_4  and  C_5
    5  A    between atoms: N_4  and  C_6
    6  A    between atoms: C_6  and  C_7
                            x       y       z     vdW  Elec       q    Type
                         _______ _______ _______ _____ _____    ______ ____

>  <TORSDO>
F 6

$$$$
=
 OpenBabel07192307433D

 33 34  0  0  0  0  0  0  0  0999 V2000
    3.6750    5.4300   17.7170 C   0  0  0  0  0  0  0  0  0  0  0  0
    2.8970    5.0330   17.0580 H   0  0  0  0  0  0  0  0  0  0  0  0
    4.2790    6.1110   17.1060 H   0  0  0  0  0  0  0  0  0  0  0  0
    2.9500    6.1670   18.8070 C   0  0  0  0  0  0  0  0  0  0  0  0
    2.6830    5.6980   20.0810 C   0  0  0  0  0  0  0  0  0  0  0  0
    2.0000    6.6620   20.7650 N   0  0  0  0  0  0  0  0  0  0  0  0
    1.7940    7.7600   19.9630 C   0  0  0  0  0  0  0  0  0  0  0  0
    1.1410    8.9680   20.2400 C   0  0  0  0  0  0  0  0  0  0  0  0
    1.0820    9.9210   19.2210 C   0  0  0  0  0  0  0  0  0  0  0  0
    1.6530    9.6750   17.9750 C   0  0  0  0  0  0  0  0  0  0  0  0
    2.3030    8.4620   17.7160 C   0  0  0  0  0  0  0  0  0  0  0  0
    2.3770    7.4810   18.7260 C   0  0  0  0  0  0  0  0  0  0  0  0
    2.9400    4.7580   20.5510 H   0  0  0  0  0  0  0  0  0  0  0  0
    1.6890    6.5860   21.7230 H   0  0  0  0  0  0  0  0  0  0  0  0
    0.6970    9.1630   21.2100 H   0  0  0  0  0  0  0  0  0  0  0  0
    0.5820   10.8700   19.4040 H   0  0  0  0  0  0  0  0  0  0  0  0
    1.5970   10.4300   17.1950 H   0  0  0  0  0  0  0  0  0  0  0  0
    2.7450    8.2840   16.7400 H   0  0  0  0  0  0  0  0  0  0  0  0
    4.5160    4.3500   18.2840 N   0  0  0  0  0  0  0  0  0  0  0  0
    5.9000    4.5160   17.8190 C   0  0  0  0  0  0  0  0  0  0  0  0
    5.9600    4.4520   16.7280 H   0  0  0  0  0  0  0  0  0  0  0  0
    6.5540    3.7140   18.1800 H   0  0  0  0  0  0  0  0  0  0  0  0
    6.3280    5.4720   18.1420 H   0  0  0  0  0  0  0  0  0  0  0  0
    3.9610    3.0110   17.9590 C   0  0  0  0  0  0  0  0  0  0  0  0
    4.6810    2.4540   17.3450 H   0  0  0  0  0  0  0  0  0  0  0  0
    2.6440    3.1440   17.1730 C   0  0  0  0  0  0  0  0  0  0  0  0
    1.8440    3.5900   17.7690 H   0  0  0  0  0  0  0  0  0  0  0  0
    2.2970    2.1690   16.8130 H   0  0  0  0  0  0  0  0  0  0  0  0
    2.7770    3.7940   16.3010 H   0  0  0  0  0  0  0  0  0  0  0  0
    3.6590    2.1480   19.1980 C   0  0  0  0  0  0  0  0  0  0  0  0
    3.8060    1.0830   18.9960 H   0  0  0  0  0  0  0  0  0  0  0  0
    4.2900    2.4320   20.0480 H   0  0  0  0  0  0  0  0  0  0  0  0
    2.6130    2.2640   19.5080 H   0  0  0  0  0  0  0  0  0  0  0  0
  1 19  1  0  0  0  0
  1  4  1  0  0  0  0
  2  1  1  0  0  0  0
  3  1  1  0  0  0  0
  4  5  2  0  0  0  0
  5 13  1  0  0  0  0
  5  6  1  0  0  0  0
  6 14  1  0  0  0  0
  7  8  1  0  0  0  0
  7  6  1  0  0  0  0
  8 15  1  0  0  0  0
  9 16  1  0  0  0  0
  9  8  2  0  0  0  0
 10  9  1  0  0  0  0
 11 10  2  0  0  0  0
 11 12  1  0  0  0  0
 12  4  1  0  0  0  0
 12  7  2  0  0  0  0
 17 10  1  0  0  0  0
 18 11  1  0  0  0  0
 20 23  1  0  0  0  0
 20 22  1  0  0  0  0
 20 19  1  0  0  0  0
 21 20  1  0  0  0  0
 24 19  1  0  0  0  0
 24 30  1  0  0  0  0
 25 24  1  0  0  0  0
 26 27  1  0  0  0  0
 26 24  1  0  0  0  0
 28 26  1  0  0  0  0
 29 26  1  0  0  0  0
 30 33  1  0  0  0  0
 30 32  1  0  0  0  0
 31 30  1  0  0  0  0
M  END
>  <MODEL>
18

>  <REMARK>
 VINA RESULT:    -5.218      2.889      4.454
 INTER + INTRA:          -7.040
 INTER:                  -6.754
 INTRA:                  -0.286
 UNBOUND:                -0.449
  Name = 
  6 active torsions:
  status: ('A' for Active; 'I' for Inactive)
    1  A    between atoms: C_1  and  C_2
    2  A    between atoms: C_2  and  C_3
    3  A    between atoms: C_2  and  N_4
    4  A    between atoms: N_4  and  C_5
    5  A    between atoms: N_4  and  C_6
    6  A    between atoms: C_6  and  C_7
                            x       y       z     vdW  Elec       q    Type
                         _______ _______ _______ _____ _____    ______ ____

>  <TORSDO>
F 6

$$$$
=
 OpenBabel07192307433D

 33 34  0  0  0  0  0  0  0  0999 V2000
    2.1940    5.4010   18.3480 C   0  0  0  0  0  0  0  0  0  0  0  0
    1.9690    6.2140   17.6510 H   0  0  0  0  0  0  0  0  0  0  0  0
    1.3080    4.7540   18.3620 H   0  0  0  0  0  0  0  0  0  0  0  0
    3.3850    4.6890   17.7760 C   0  0  0  0  0  0  0  0  0  0  0  0
    3.4950    3.3300   17.5350 C   0  0  0  0  0  0  0  0  0  0  0  0
    4.7340    3.0790   17.0190 N   0  0  0  0  0  0  0  0  0  0  0  0
    5.4570    4.2450   16.9260 C   0  0  0  0  0  0  0  0  0  0  0  0
    6.7610    4.4610   16.4640 C   0  0  0  0  0  0  0  0  0  0  0  0
    7.2470    5.7700   16.4820 C   0  0  0  0  0  0  0  0  0  0  0  0
    6.4570    6.8210   16.9430 C   0  0  0  0  0  0  0  0  0  0  0  0
    5.1540    6.5870   17.4000 C   0  0  0  0  0  0  0  0  0  0  0  0
    4.6390    5.2740   17.3940 C   0  0  0  0  0  0  0  0  0  0  0  0
    2.7790    2.5320   17.6820 H   0  0  0  0  0  0  0  0  0  0  0  0
    5.0750    2.1690   16.7430 H   0  0  0  0  0  0  0  0  0  0  0  0
    7.3770    3.6450   16.1030 H   0  0  0  0  0  0  0  0  0  0  0  0
    8.2560    5.9720   16.1300 H   0  0  0  0  0  0  0  0  0  0  0  0
    6.8530    7.8330   16.9480 H   0  0  0  0  0  0  0  0  0  0  0  0
    4.5500    7.4160   17.7550 H   0  0  0  0  0  0  0  0  0  0  0  0
    2.4900    5.9120   19.7080 N   0  0  0  0  0  0  0  0  0  0  0  0
    1.6310    5.2260   20.6840 C   0  0  0  0  0  0  0  0  0  0  0  0
    2.2220    4.5950   21.3540 H   0  0  0  0  0  0  0  0  0  0  0  0
    0.9280    4.5380   20.2020 H   0  0  0  0  0  0  0  0  0  0  0  0
    1.0510    5.9360   21.2850 H   0  0  0  0  0  0  0  0  0  0  0  0
    2.3550    7.3900   19.7670 C   0  0  0  0  0  0  0  0  0  0  0  0
    3.3170    7.8350   20.0530 H   0  0  0  0  0  0  0  0  0  0  0  0
    1.2950    7.7980   20.8070 C   0  0  0  0  0  0  0  0  0  0  0  0
    1.3070    8.8700   21.0190 H   0  0  0  0  0  0  0  0  0  0  0  0
    1.4420    7.2620   21.7520 H   0  0  0  0  0  0  0  0  0  0  0  0
    0.2880    7.5660   20.4450 H   0  0  0  0  0  0  0  0  0  0  0  0
    1.9400    8.0290   18.4290 C   0  0  0  0  0  0  0  0  0  0  0  0
    2.4940    7.6010   17.5870 H   0  0  0  0  0  0  0  0  0  0  0  0
    0.8680    7.9040   18.2410 H   0  0  0  0  0  0  0  0  0  0  0  0
    2.1550    9.1040   18.4280 H   0  0  0  0  0  0  0  0  0  0  0  0
  1  3  1  0  0  0  0
  1 19  1  0  0  0  0
  2  1  1  0  0  0  0
  4  1  1  0  0  0  0
  5 13  1  0  0  0  0
  5  4  2  0  0  0  0
  6  5  1  0  0  0  0
  7  6  1  0  0  0  0
  7 12  1  0  0  0  0
  8  9  1  0  0  0  0
  8  7  2  0  0  0  0
  9 10  2  0  0  0  0
 10 17  1  0  0  0  0
 10 11  1  0  0  0  0
 11 18  1  0  0  0  0
 12 11  2  0  0  0  0
 12  4  1  0  0  0  0
 14  6  1  0  0  0  0
 15  8  1  0  0  0  0
 16  9  1  0  0  0  0
 19 24  1  0  0  0  0
 19 20  1  0  0  0  0
 20 23  1  0  0  0  0
 20 21  1  0  0  0  0
 22 20  1  0  0  0  0
 24 25  1  0  0  0  0
 24 26  1  0  0  0  0
 26 27  1  0  0  0  0
 26 28  1  0  0  0  0
 29 26  1  0  0  0  0
 30 24  1  0  0  0  0
 31 30  1  0  0  0  0
 32 30  1  0  0  0  0
 33 30  1  0  0  0  0
M  END
>  <MODEL>
19

>  <REMARK>
 VINA RESULT:    -5.142      1.935      5.369
 INTER + INTRA:          -6.944
 INTER:                  -6.483
 INTRA:                  -0.461
 UNBOUND:                -0.449
  Name = 
  6 active torsions:
  status: ('A' for Active; 'I' for Inactive)
    1  A    between atoms: C_1  and  C_2
    2  A    between atoms: C_2  and  C_3
    3  A    between atoms: C_2  and  N_4
    4  A    between atoms: N_4  and  C_5
    5  A    between atoms: N_4  and  C_6
    6  A    between atoms: C_6  and  C_7
                            x       y       z     vdW  Elec       q    Type
                         _______ _______ _______ _____ _____    ______ ____

>  <TORSDO>
F 6

$$$$
=
 OpenBabel07192307433D

 33 34  0  0  0  0  0  0  0  0999 V2000
    5.8290    5.5050   18.9150 C   0  0  0  0  0  0  0  0  0  0  0  0
    5.9990    6.5670   19.1160 H   0  0  0  0  0  0  0  0  0  0  0  0
    6.3580    4.9550   19.7030 H   0  0  0  0  0  0  0  0  0  0  0  0
    4.3440    5.3040   19.0070 C   0  0  0  0  0  0  0  0  0  0  0  0
    3.3970    6.2750   19.2840 C   0  0  0  0  0  0  0  0  0  0  0  0
    2.1630    5.6910   19.2850 N   0  0  0  0  0  0  0  0  0  0  0  0
    2.2720    4.3450   19.0280 C   0  0  0  0  0  0  0  0  0  0  0  0
    1.2800    3.3610   18.9410 C   0  0  0  0  0  0  0  0  0  0  0  0
    1.6850    2.0530   18.6630 C   0  0  0  0  0  0  0  0  0  0  0  0
    3.0300    1.7440   18.4800 C   0  0  0  0  0  0  0  0  0  0  0  0
    4.0100    2.7400   18.5700 C   0  0  0  0  0  0  0  0  0  0  0  0
    3.6290    4.0690   18.8500 C   0  0  0  0  0  0  0  0  0  0  0  0
    3.5120    7.3350   19.4660 H   0  0  0  0  0  0  0  0  0  0  0  0
    1.2910    6.1740   19.4490 H   0  0  0  0  0  0  0  0  0  0  0  0
    0.2310    3.5990   19.0810 H   0  0  0  0  0  0  0  0  0  0  0  0
    0.9390    1.2660   18.5880 H   0  0  0  0  0  0  0  0  0  0  0  0
    3.3260    0.7210   18.2640 H   0  0  0  0  0  0  0  0  0  0  0  0
    5.0550    2.4850   18.4230 H   0  0  0  0  0  0  0  0  0  0  0  0
    6.3310    5.1150   17.5770 N   0  0  0  0  0  0  0  0  0  0  0  0
    7.6260    4.4360   17.7210 C   0  0  0  0  0  0  0  0  0  0  0  0
    8.3040    4.7010   16.9030 H   0  0  0  0  0  0  0  0  0  0  0  0
    7.5290    3.3470   17.6580 H   0  0  0  0  0  0  0  0  0  0  0  0
    8.1100    4.6780   18.6740 H   0  0  0  0  0  0  0  0  0  0  0  0
    6.3980    6.2860   16.6650 C   0  0  0  0  0  0  0  0  0  0  0  0
    7.1000    6.0750   15.8480 H   0  0  0  0  0  0  0  0  0  0  0  0
    6.8830    7.5360   17.4220 C   0  0  0  0  0  0  0  0  0  0  0  0
    6.0570    8.1470   17.7940 H   0  0  0  0  0  0  0  0  0  0  0  0
    7.5120    8.1660   16.7820 H   0  0  0  0  0  0  0  0  0  0  0  0
    7.4770    7.2530   18.2980 H   0  0  0  0  0  0  0  0  0  0  0  0
    5.0470    6.6470   16.0200 C   0  0  0  0  0  0  0  0  0  0  0  0
    4.3660    5.7910   16.0020 H   0  0  0  0  0  0  0  0  0  0  0  0
    4.5580    7.4710   16.5510 H   0  0  0  0  0  0  0  0  0  0  0  0
    5.1840    6.9570   14.9780 H   0  0  0  0  0  0  0  0  0  0  0  0
  1  4  1  0  0  0  0
  1  2  1  0  0  0  0
  1  3  1  0  0  0  0
  4  5  2  0  0  0  0
  5  6  1  0  0  0  0
  5 13  1  0  0  0  0
  6 14  1  0  0  0  0
  7  6  1  0  0  0  0
  8  7  1  0  0  0  0
  8 15  1  0  0  0  0
  9  8  2  0  0  0  0
 10 11  2  0  0  0  0
 10  9  1  0  0  0  0
 11 12  1  0  0  0  0
 12  4  1  0  0  0  0
 12  7  2  0  0  0  0
 16  9  1  0  0  0  0
 17 10  1  0  0  0  0
 18 11  1  0  0  0  0
 19 20  1  0  0  0  0
 19  1  1  0  0  0  0
 20 23  1  0  0  0  0
 21 20  1  0  0  0  0
 22 20  1  0  0  0  0
 24 26  1  0  0  0  0
 24 19  1  0  0  0  0
 25 24  1  0  0  0  0
 26 27  1  0  0  0  0
 26 29  1  0  0  0  0
 28 26  1  0  0  0  0
 30 32  1  0  0  0  0
 30 24  1  0  0  0  0
 31 30  1  0  0  0  0
 33 30  1  0  0  0  0
M  END
>  <MODEL>
20

>  <REMARK>
 VINA RESULT:    -5.125      1.107      1.940
 INTER + INTRA:          -6.923
 INTER:                  -6.640
 INTRA:                  -0.284
 UNBOUND:                -0.449
  Name = 
  6 active torsions:
  status: ('A' for Active; 'I' for Inactive)
    1  A    between atoms: C_1  and  C_2
    2  A    between atoms: C_2  and  C_3
    3  A    between atoms: C_2  and  N_4
    4  A    between atoms: N_4  and  C_5
    5  A    between atoms: N_4  and  C_6
    6  A    between atoms: C_6  and  C_7
                            x       y       z     vdW  Elec       q    Type
                         _______ _______ _______ _____ _____    ______ ____

>  <TORSDO>
F 6

$$$$
=
 OpenBabel07192307433D

 33 34  0  0  0  0  0  0  0  0999 V2000
    3.1920    4.6710   20.1110 C   0  0  0  0  0  0  0  0  0  0  0  0
    4.2190    4.2980   20.0750 H   0  0  0  0  0  0  0  0  0  0  0  0
    3.0240    5.0120   21.1400 H   0  0  0  0  0  0  0  0  0  0  0  0
    3.1360    5.8130   19.1380 C   0  0  0  0  0  0  0  0  0  0  0  0
    3.7630    5.8760   17.9060 C   0  0  0  0  0  0  0  0  0  0  0  0
    3.4730    7.0800   17.3310 N   0  0  0  0  0  0  0  0  0  0  0  0
    2.6760    7.8270   18.1670 C   0  0  0  0  0  0  0  0  0  0  0  0
    2.1460    9.1120   17.9940 C   0  0  0  0  0  0  0  0  0  0  0  0
    1.3560    9.6310   19.0240 C   0  0  0  0  0  0  0  0  0  0  0  0
    1.1090    8.8930   20.1780 C   0  0  0  0  0  0  0  0  0  0  0  0
    1.6460    7.6090   20.3340 C   0  0  0  0  0  0  0  0  0  0  0  0
    2.4470    7.0600   19.3110 C   0  0  0  0  0  0  0  0  0  0  0  0
    4.3800    5.1480   17.3950 H   0  0  0  0  0  0  0  0  0  0  0  0
    3.7940    7.3840   16.4230 H   0  0  0  0  0  0  0  0  0  0  0  0
    2.3360    9.6880   17.0960 H   0  0  0  0  0  0  0  0  0  0  0  0
    0.9290   10.6260   18.9210 H   0  0  0  0  0  0  0  0  0  0  0  0
    0.4910    9.3140   20.9670 H   0  0  0  0  0  0  0  0  0  0  0  0
    1.4430    7.0450   21.2380 H   0  0  0  0  0  0  0  0  0  0  0  0
    2.2150    3.6190   19.7430 N   0  0  0  0  0  0  0  0  0  0  0  0
    1.2370    3.4590   20.8280 C   0  0  0  0  0  0  0  0  0  0  0  0
    1.2400    4.3290   21.4930 H   0  0  0  0  0  0  0  0  0  0  0  0
    1.4800    2.6120   21.4790 H   0  0  0  0  0  0  0  0  0  0  0  0
    0.2210    3.3110   20.4440 H   0  0  0  0  0  0  0  0  0  0  0  0
    2.9000    2.3460   19.4000 C   0  0  0  0  0  0  0  0  0  0  0  0
    2.3610    1.5050   19.8540 H   0  0  0  0  0  0  0  0  0  0  0  0
    4.3460    2.3470   19.9310 C   0  0  0  0  0  0  0  0  0  0  0  0
    4.4330    2.8290   20.9080 H   0  0  0  0  0  0  0  0  0  0  0  0
    5.0220    2.8600   19.2370 H   0  0  0  0  0  0  0  0  0  0  0  0
    4.7130    1.3230   20.0580 H   0  0  0  0  0  0  0  0  0  0  0  0
    2.9770    2.0720   17.8870 C   0  0  0  0  0  0  0  0  0  0  0  0
    2.1360    2.5230   17.3510 H   0  0  0  0  0  0  0  0  0  0  0  0
    3.9100    2.4540   17.4580 H   0  0  0  0  0  0  0  0  0  0  0  0
    2.9340    0.9950   17.6840 H   0  0  0  0  0  0  0  0  0  0  0  0
  1  3  1  0  0  0  0
  2  1  1  0  0  0  0
  4 12  1  0  0  0  0
  4  1  1  0  0  0  0
  5  4  2  0  0  0  0
  6  5  1  0  0  0  0
  6  7  1  0  0  0  0
  7 12  1  0  0  0  0
  8  7  2  0  0  0  0
  8  9  1  0  0  0  0
  9 10  2  0  0  0  0
 10 11  1  0  0  0  0
 10 17  1  0  0  0  0
 11 18  1  0  0  0  0
 12 11  2  0  0  0  0
 13  5  1  0  0  0  0
 14  6  1  0  0  0  0
 15  8  1  0  0  0  0
 16  9  1  0  0  0  0
 19  1  1  0  0  0  0
 19 20  1  0  0  0  0
 20 22  1  0  0  0  0
 20 21  1  0  0  0  0
 23 20  1  0  0  0  0
 24 19  1  0  0  0  0
 24 25  1  0  0  0  0
 24 26  1  0  0  0  0
 26 29  1  0  0  0  0
 26 27  1  0  0  0  0
 28 26  1  0  0  0  0
 30 24  1  0  0  0  0
 31 30  1  0  0  0  0
 32 30  1  0  0  0  0
 33 30  1  0  0  0  0
M  END
>  <MODEL>
21

>  <REMARK>
 VINA RESULT:    -5.053      2.720      5.067
 INTER + INTRA:          -6.832
 INTER:                  -6.395
 INTRA:                  -0.437
 UNBOUND:                -0.449
  Name = 
  6 active torsions:
  status: ('A' for Active; 'I' for Inactive)
    1  A    between atoms: C_1  and  C_2
    2  A    between atoms: C_2  and  C_3
    3  A    between atoms: C_2  and  N_4
    4  A    between atoms: N_4  and  C_5
    5  A    between atoms: N_4  and  C_6
    6  A    between atoms: C_6  and  C_7
                            x       y       z     vdW  Elec       q    Type
                         _______ _______ _______ _____ _____    ______ ____

>  <TORSDO>
F 6

$$$$
=
 OpenBabel07192307433D

 33 34  0  0  0  0  0  0  0  0999 V2000
    3.1110    4.4360   18.7280 C   0  0  0  0  0  0  0  0  0  0  0  0
    2.5870    4.7310   17.8140 H   0  0  0  0  0  0  0  0  0  0  0  0
    2.7530    3.4300   18.9770 H   0  0  0  0  0  0  0  0  0  0  0  0
    4.5710    4.4290   18.3780 C   0  0  0  0  0  0  0  0  0  0  0  0
    5.6310    4.4060   19.2680 C   0  0  0  0  0  0  0  0  0  0  0  0
    6.7970    4.4150   18.5570 N   0  0  0  0  0  0  0  0  0  0  0  0
    6.5310    4.4580   17.2080 C   0  0  0  0  0  0  0  0  0  0  0  0
    7.4100    4.4870   16.1180 C   0  0  0  0  0  0  0  0  0  0  0  0
    6.8530    4.5290   14.8380 C   0  0  0  0  0  0  0  0  0  0  0  0
    5.4730    4.5420   14.6570 C   0  0  0  0  0  0  0  0  0  0  0  0
    4.6090    4.5110   15.7580 C   0  0  0  0  0  0  0  0  0  0  0  0
    5.1430    4.4690   17.0620 C   0  0  0  0  0  0  0  0  0  0  0  0
    5.6380    4.3710   20.3490 H   0  0  0  0  0  0  0  0  0  0  0  0
    7.7230    4.3910   18.9580 H   0  0  0  0  0  0  0  0  0  0  0  0
    8.4850    4.4760   16.2560 H   0  0  0  0  0  0  0  0  0  0  0  0
    7.5080    4.5520   13.9690 H   0  0  0  0  0  0  0  0  0  0  0  0
    5.0590    4.5740   13.6520 H   0  0  0  0  0  0  0  0  0  0  0  0
    3.5340    4.5200   15.6010 H   0  0  0  0  0  0  0  0  0  0  0  0
    2.8420    5.3770   19.8410 N   0  0  0  0  0  0  0  0  0  0  0  0
    2.1730    4.6590   20.9350 C   0  0  0  0  0  0  0  0  0  0  0  0
    1.1740    4.3270   20.6360 H   0  0  0  0  0  0  0  0  0  0  0  0
    2.0030    5.3020   21.8060 H   0  0  0  0  0  0  0  0  0  0  0  0
    2.7510    3.7880   21.2660 H   0  0  0  0  0  0  0  0  0  0  0  0
    2.0680    6.5550   19.3740 C   0  0  0  0  0  0  0  0  0  0  0  0
    1.0890    6.2260   19.0000 H   0  0  0  0  0  0  0  0  0  0  0  0
    2.8110    7.2770   18.2350 C   0  0  0  0  0  0  0  0  0  0  0  0
    2.7440    6.7410   17.2850 H   0  0  0  0  0  0  0  0  0  0  0  0
    3.8720    7.4100   18.4760 H   0  0  0  0  0  0  0  0  0  0  0  0
    2.3820    8.2690   18.0590 H   0  0  0  0  0  0  0  0  0  0  0  0
    1.8060    7.6010   20.4730 C   0  0  0  0  0  0  0  0  0  0  0  0
    0.7920    8.0070   20.4120 H   0  0  0  0  0  0  0  0  0  0  0  0
    1.9520    7.1760   21.4720 H   0  0  0  0  0  0  0  0  0  0  0  0
    2.4890    8.4530   20.3700 H   0  0  0  0  0  0  0  0  0  0  0  0
  1  3  1  0  0  0  0
  1 19  1  0  0  0  0
  2  1  1  0  0  0  0
  4  1  1  0  0  0  0
  4  5  2  0  0  0  0
  5 13  1  0  0  0  0
  6 14  1  0  0  0  0
  6  5  1  0  0  0  0
  7  6  1  0  0  0  0
  8 15  1  0  0  0  0
  8  7  2  0  0  0  0
  9  8  1  0  0  0  0
 10  9  2  0  0  0  0
 10 11  1  0  0  0  0
 11 12  2  0  0  0  0
 12  7  1  0  0  0  0
 12  4  1  0  0  0  0
 16  9  1  0  0  0  0
 17 10  1  0  0  0  0
 18 11  1  0  0  0  0
 19 20  1  0  0  0  0
 20 23  1  0  0  0  0
 20 22  1  0  0  0  0
 21 20  1  0  0  0  0
 24 19  1  0  0  0  0
 24 30  1  0  0  0  0
 25 24  1  0  0  0  0
 26 28  1  0  0  0  0
 26 24  1  0  0  0  0
 27 26  1  0  0  0  0
 29 26  1  0  0  0  0
 30 32  1  0  0  0  0
 31 30  1  0  0  0  0
 33 30  1  0  0  0  0
M  END
>  <MODEL>
22

>  <REMARK>
 VINA RESULT:    -5.021      1.750      5.143
 INTER + INTRA:          -6.791
 INTER:                  -6.537
 INTRA:                  -0.255
 UNBOUND:                -0.449
  Name = 
  6 active torsions:
  status: ('A' for Active; 'I' for Inactive)
    1  A    between atoms: C_1  and  C_2
    2  A    between atoms: C_2  and  C_3
    3  A    between atoms: C_2  and  N_4
    4  A    between atoms: N_4  and  C_5
    5  A    between atoms: N_4  and  C_6
    6  A    between atoms: C_6  and  C_7
                            x       y       z     vdW  Elec       q    Type
                         _______ _______ _______ _____ _____    ______ ____

>  <TORSDO>
F 6

$$$$
=
 OpenBabel07192307433D

 33 34  0  0  0  0  0  0  0  0999 V2000
    3.0710    6.1250   19.2550 C   0  0  0  0  0  0  0  0  0  0  0  0
    3.7430    5.8520   18.4360 H   0  0  0  0  0  0  0  0  0  0  0  0
    3.7010    6.2320   20.1470 H   0  0  0  0  0  0  0  0  0  0  0  0
    2.4550    7.4360   18.8580 C   0  0  0  0  0  0  0  0  0  0  0  0
    2.5740    8.0630   17.6300 C   0  0  0  0  0  0  0  0  0  0  0  0
    1.8740    9.2350   17.6700 N   0  0  0  0  0  0  0  0  0  0  0  0
    1.3040    9.4070   18.9090 C   0  0  0  0  0  0  0  0  0  0  0  0
    0.5140   10.4540   19.3990 C   0  0  0  0  0  0  0  0  0  0  0  0
    0.0630   10.3630   20.7190 C   0  0  0  0  0  0  0  0  0  0  0  0
    0.3900    9.2680   21.5140 C   0  0  0  0  0  0  0  0  0  0  0  0
    1.1810    8.2290   21.0080 C   0  0  0  0  0  0  0  0  0  0  0  0
    1.6500    8.2950   19.6790 C   0  0  0  0  0  0  0  0  0  0  0  0
    3.0920    7.7530   16.7320 H   0  0  0  0  0  0  0  0  0  0  0  0
    1.7850    9.8850   16.9030 H   0  0  0  0  0  0  0  0  0  0  0  0
    0.2560   11.3070   18.7820 H   0  0  0  0  0  0  0  0  0  0  0  0
   -0.5530   11.1600   21.1300 H   0  0  0  0  0  0  0  0  0  0  0  0
    0.0290    9.2160   22.5380 H   0  0  0  0  0  0  0  0  0  0  0  0
    1.4260    7.3810   21.6390 H   0  0  0  0  0  0  0  0  0  0  0  0
    2.0260    5.0980   19.4730 N   0  0  0  0  0  0  0  0  0  0  0  0
    2.3740    4.2890   20.6490 C   0  0  0  0  0  0  0  0  0  0  0  0
    2.1250    4.8140   21.5770 H   0  0  0  0  0  0  0  0  0  0  0  0
    3.4520    4.1040   20.7170 H   0  0  0  0  0  0  0  0  0  0  0  0
    1.8640    3.3190   20.6430 H   0  0  0  0  0  0  0  0  0  0  0  0
    1.8210    4.2730   18.2540 C   0  0  0  0  0  0  0  0  0  0  0  0
    1.1350    4.7910   17.5710 H   0  0  0  0  0  0  0  0  0  0  0  0
    1.2140    2.9060   18.6180 C   0  0  0  0  0  0  0  0  0  0  0  0
    1.9540    2.1020   18.6080 H   0  0  0  0  0  0  0  0  0  0  0  0
    0.4080    2.6350   17.9270 H   0  0  0  0  0  0  0  0  0  0  0  0
    0.7930    2.9260   19.6290 H   0  0  0  0  0  0  0  0  0  0  0  0
    3.1170    3.9940   17.4700 C   0  0  0  0  0  0  0  0  0  0  0  0
    3.2760    4.7300   16.6750 H   0  0  0  0  0  0  0  0  0  0  0  0
    3.9920    3.9970   18.1290 H   0  0  0  0  0  0  0  0  0  0  0  0
    3.0720    3.0140   16.9800 H   0  0  0  0  0  0  0  0  0  0  0  0
  1 19  1  0  0  0  0
  1  3  1  0  0  0  0
  2  1  1  0  0  0  0
  4  1  1  0  0  0  0
  4 12  1  0  0  0  0
  5  6  1  0  0  0  0
  5  4  2  0  0  0  0
  6  7  1  0  0  0  0
  7  8  2  0  0  0  0
  7 12  1  0  0  0  0
  8  9  1  0  0  0  0
  9 16  1  0  0  0  0
  9 10  2  0  0  0  0
 10 17  1  0  0  0  0
 11 10  1  0  0  0  0
 11 18  1  0  0  0  0
 12 11  2  0  0  0  0
 13  5  1  0  0  0  0
 14  6  1  0  0  0  0
 15  8  1  0  0  0  0
 19 20  1  0  0  0  0
 20 22  1  0  0  0  0
 20 21  1  0  0  0  0
 23 20  1  0  0  0  0
 24 26  1  0  0  0  0
 24 19  1  0  0  0  0
 25 24  1  0  0  0  0
 26 29  1  0  0  0  0
 27 26  1  0  0  0  0
 28 26  1  0  0  0  0
 30 32  1  0  0  0  0
 30 24  1  0  0  0  0
 31 30  1  0  0  0  0
 33 30  1  0  0  0  0
M  END
>  <MODEL>
23

>  <REMARK>
 VINA RESULT:    -5.006      3.685      5.554
 INTER + INTRA:          -6.773
 INTER:                  -6.398
 INTRA:                  -0.375
 UNBOUND:                -0.449
  Name = 
  6 active torsions:
  status: ('A' for Active; 'I' for Inactive)
    1  A    between atoms: C_1  and  C_2
    2  A    between atoms: C_2  and  C_3
    3  A    between atoms: C_2  and  N_4
    4  A    between atoms: N_4  and  C_5
    5  A    between atoms: N_4  and  C_6
    6  A    between atoms: C_6  and  C_7
                            x       y       z     vdW  Elec       q    Type
                         _______ _______ _______ _____ _____    ______ ____

>  <TORSDO>
F 6

$$$$
=
 OpenBabel07192307433D

 33 34  0  0  0  0  0  0  0  0999 V2000
    2.9710    6.2570   19.1050 C   0  0  0  0  0  0  0  0  0  0  0  0
    3.9780    6.4680   19.4760 H   0  0  0  0  0  0  0  0  0  0  0  0
    2.4630    5.6920   19.8960 H   0  0  0  0  0  0  0  0  0  0  0  0
    2.3260    7.5960   18.8870 C   0  0  0  0  0  0  0  0  0  0  0  0
    2.3880    8.3610   17.7350 C   0  0  0  0  0  0  0  0  0  0  0  0
    1.6800    9.5110   17.9390 N   0  0  0  0  0  0  0  0  0  0  0  0
    1.1600    9.5310   19.2120 C   0  0  0  0  0  0  0  0  0  0  0  0
    0.3820   10.5040   19.8510 C   0  0  0  0  0  0  0  0  0  0  0  0
   -0.0120   10.2560   21.1690 C   0  0  0  0  0  0  0  0  0  0  0  0
    0.3580    9.0820   21.8180 C   0  0  0  0  0  0  0  0  0  0  0  0
    1.1360    8.1190   21.1640 C   0  0  0  0  0  0  0  0  0  0  0  0
    1.5490    8.3430   19.8340 C   0  0  0  0  0  0  0  0  0  0  0  0
    2.8710    8.1640   16.7870 H   0  0  0  0  0  0  0  0  0  0  0  0
    1.5520   10.2440   17.2560 H   0  0  0  0  0  0  0  0  0  0  0  0
    0.0900   11.4190   19.3470 H   0  0  0  0  0  0  0  0  0  0  0  0
   -0.6180   10.9920   21.6940 H   0  0  0  0  0  0  0  0  0  0  0  0
    0.0410    8.9070   22.8430 H   0  0  0  0  0  0  0  0  0  0  0  0
    1.4160    7.2070   21.6820 H   0  0  0  0  0  0  0  0  0  0  0  0
    3.0030    5.4780   17.8440 N   0  0  0  0  0  0  0  0  0  0  0  0
    2.0730    4.3450   17.9470 C   0  0  0  0  0  0  0  0  0  0  0  0
    1.0350    4.6760   17.8440 H   0  0  0  0  0  0  0  0  0  0  0  0
    2.1160    3.8660   18.9310 H   0  0  0  0  0  0  0  0  0  0  0  0
    2.2780    3.5790   17.1890 H   0  0  0  0  0  0  0  0  0  0  0  0
    4.3870    5.0530   17.5120 C   0  0  0  0  0  0  0  0  0  0  0  0
    4.3800    4.0060   17.1800 H   0  0  0  0  0  0  0  0  0  0  0  0
    5.3030    5.1710   18.7440 C   0  0  0  0  0  0  0  0  0  0  0  0
    4.8030    5.6430   19.5940 H   0  0  0  0  0  0  0  0  0  0  0  0
    6.2030    5.7520   18.5140 H   0  0  0  0  0  0  0  0  0  0  0  0
    5.6240    4.1810   19.0860 H   0  0  0  0  0  0  0  0  0  0  0  0
    5.0370    5.8810   16.3880 C   0  0  0  0  0  0  0  0  0  0  0  0
    4.5500    5.7070   15.4240 H   0  0  0  0  0  0  0  0  0  0  0  0
    5.0020    6.9530   16.6090 H   0  0  0  0  0  0  0  0  0  0  0  0
    6.0900    5.6020   16.2580 H   0  0  0  0  0  0  0  0  0  0  0  0
  1  2  1  0  0  0  0
  1  3  1  0  0  0  0
  4  1  1  0  0  0  0
  4 12  1  0  0  0  0
  5  6  1  0  0  0  0
  5  4  2  0  0  0  0
  6  7  1  0  0  0  0
  7 12  2  0  0  0  0
  7  8  1  0  0  0  0
  8  9  2  0  0  0  0
  9 16  1  0  0  0  0
  9 10  1  0  0  0  0
 10 17  1  0  0  0  0
 11 18  1  0  0  0  0
 11 10  2  0  0  0  0
 12 11  1  0  0  0  0
 13  5  1  0  0  0  0
 14  6  1  0  0  0  0
 15  8  1  0  0  0  0
 19 20  1  0  0  0  0
 19  1  1  0  0  0  0
 20 22  1  0  0  0  0
 21 20  1  0  0  0  0
 23 20  1  0  0  0  0
 24 19  1  0  0  0  0
 24 26  1  0  0  0  0
 25 24  1  0  0  0  0
 26 29  1  0  0  0  0
 26 27  1  0  0  0  0
 28 26  1  0  0  0  0
 30 32  1  0  0  0  0
 30 24  1  0  0  0  0
 31 30  1  0  0  0  0
 33 30  1  0  0  0  0
M  END
>  <MODEL>
24

>  <REMARK>
 VINA RESULT:    -4.881      3.793      4.855
 INTER + INTRA:          -6.615
 INTER:                  -6.223
 INTRA:                  -0.391
 UNBOUND:                -0.449
  Name = 
  6 active torsions:
  status: ('A' for Active; 'I' for Inactive)
    1  A    between atoms: C_1  and  C_2
    2  A    between atoms: C_2  and  C_3
    3  A    between atoms: C_2  and  N_4
    4  A    between atoms: N_4  and  C_5
    5  A    between atoms: N_4  and  C_6
    6  A    between atoms: C_6  and  C_7
                            x       y       z     vdW  Elec       q    Type
                         _______ _______ _______ _____ _____    ______ ____

>  <TORSDO>
F 6

$$$$
=
 OpenBabel07192307433D

 33 34  0  0  0  0  0  0  0  0999 V2000
    3.2160    7.0120   19.2290 C   0  0  0  0  0  0  0  0  0  0  0  0
    3.3340    6.8150   20.2990 H   0  0  0  0  0  0  0  0  0  0  0  0
    4.1100    7.5660   18.9180 H   0  0  0  0  0  0  0  0  0  0  0  0
    3.1480    5.6650   18.5700 C   0  0  0  0  0  0  0  0  0  0  0  0
    3.8520    5.2610   17.4480 C   0  0  0  0  0  0  0  0  0  0  0  0
    3.5070    3.9710   17.1610 N   0  0  0  0  0  0  0  0  0  0  0  0
    2.5740    3.5150   18.0620 C   0  0  0  0  0  0  0  0  0  0  0  0
    1.9390    2.2690   18.1480 C   0  0  0  0  0  0  0  0  0  0  0  0
    1.0210    2.0800   19.1830 C   0  0  0  0  0  0  0  0  0  0  0  0
    0.7500    3.0960   20.0950 C   0  0  0  0  0  0  0  0  0  0  0  0
    1.3950    4.3350   19.9950 C   0  0  0  0  0  0  0  0  0  0  0  0
    2.3260    4.5550   18.9590 C   0  0  0  0  0  0  0  0  0  0  0  0
    4.5780    5.7910   16.8480 H   0  0  0  0  0  0  0  0  0  0  0  0
    3.8810    3.4260   16.3970 H   0  0  0  0  0  0  0  0  0  0  0  0
    2.1490    1.4760   17.4400 H   0  0  0  0  0  0  0  0  0  0  0  0
    0.5110    1.1240   19.2780 H   0  0  0  0  0  0  0  0  0  0  0  0
    0.0330    2.9290   20.8950 H   0  0  0  0  0  0  0  0  0  0  0  0
    1.1750    5.1180   20.7150 H   0  0  0  0  0  0  0  0  0  0  0  0
    1.9910    7.7970   18.9500 N   0  0  0  0  0  0  0  0  0  0  0  0
    2.1700    8.5540   17.7020 C   0  0  0  0  0  0  0  0  0  0  0  0
    1.2890    9.1640   17.4810 H   0  0  0  0  0  0  0  0  0  0  0  0
    2.2770    7.8950   16.8340 H   0  0  0  0  0  0  0  0  0  0  0  0
    3.0510    9.2050   17.7430 H   0  0  0  0  0  0  0  0  0  0  0  0
    1.6370    8.6680   20.1000 C   0  0  0  0  0  0  0  0  0  0  0  0
    2.5490    9.1190   20.5140 H   0  0  0  0  0  0  0  0  0  0  0  0
    0.9450    7.8520   21.2070 C   0  0  0  0  0  0  0  0  0  0  0  0
    0.1970    7.1590   20.8120 H   0  0  0  0  0  0  0  0  0  0  0  0
    0.4510    8.5080   21.9330 H   0  0  0  0  0  0  0  0  0  0  0  0
    1.6730    7.2410   21.7510 H   0  0  0  0  0  0  0  0  0  0  0  0
    0.6870    9.8230   19.7330 C   0  0  0  0  0  0  0  0  0  0  0  0
   -0.3630    9.5300   19.8290 H   0  0  0  0  0  0  0  0  0  0  0  0
    0.8630   10.7020   20.3630 H   0  0  0  0  0  0  0  0  0  0  0  0
    0.8300   10.1280   18.6900 H   0  0  0  0  0  0  0  0  0  0  0  0
  1  2  1  0  0  0  0
  3  1  1  0  0  0  0
  4 12  1  0  0  0  0
  4  1  1  0  0  0  0
  5  4  2  0  0  0  0
  6  5  1  0  0  0  0
  6  7  1  0  0  0  0
  7  8  2  0  0  0  0
  7 12  1  0  0  0  0
  8  9  1  0  0  0  0
  9 16  1  0  0  0  0
  9 10  2  0  0  0  0
 10 17  1  0  0  0  0
 11 10  1  0  0  0  0
 11 18  1  0  0  0  0
 12 11  2  0  0  0  0
 13  5  1  0  0  0  0
 14  6  1  0  0  0  0
 15  8  1  0  0  0  0
 19  1  1  0  0  0  0
 19 24  1  0  0  0  0
 20 23  1  0  0  0  0
 20 19  1  0  0  0  0
 21 20  1  0  0  0  0
 22 20  1  0  0  0  0
 24 25  1  0  0  0  0
 24 26  1  0  0  0  0
 26 29  1  0  0  0  0
 26 28  1  0  0  0  0
 27 26  1  0  0  0  0
 30 31  1  0  0  0  0
 30 24  1  0  0  0  0
 30 32  1  0  0  0  0
 33 30  1  0  0  0  0
M  END
>  <MODEL>
25

>  <REMARK>
 VINA RESULT:    -4.874      2.577      4.285
 INTER + INTRA:          -6.605
 INTER:                  -6.161
 INTRA:                  -0.444
 UNBOUND:                -0.449
  Name = 
  6 active torsions:
  status: ('A' for Active; 'I' for Inactive)
    1  A    between atoms: C_1  and  C_2
    2  A    between atoms: C_2  and  C_3
    3  A    between atoms: C_2  and  N_4
    4  A    between atoms: N_4  and  C_5
    5  A    between atoms: N_4  and  C_6
    6  A    between atoms: C_6  and  C_7
                            x       y       z     vdW  Elec       q    Type
                         _______ _______ _______ _____ _____    ______ ____

>  <TORSDO>
F 6

$$$$
=
 OpenBabel07192307433D

 33 34  0  0  0  0  0  0  0  0999 V2000
   -0.3860   10.4050   19.5710 C   0  0  0  0  0  0  0  0  0  0  0  0
   -0.6280    9.3570   19.7730 H   0  0  0  0  0  0  0  0  0  0  0  0
    0.4240   10.3970   18.8310 H   0  0  0  0  0  0  0  0  0  0  0  0
   -1.6390   11.0120   19.0070 C   0  0  0  0  0  0  0  0  0  0  0  0
   -2.4330   11.9710   19.6120 C   0  0  0  0  0  0  0  0  0  0  0  0
   -3.4800   12.2540   18.7820 N   0  0  0  0  0  0  0  0  0  0  0  0
   -3.4050   11.4890   17.6420 C   0  0  0  0  0  0  0  0  0  0  0  0
   -4.2570   11.4420   16.5320 C   0  0  0  0  0  0  0  0  0  0  0  0
   -3.9310   10.5570   15.5010 C   0  0  0  0  0  0  0  0  0  0  0  0
   -2.7970    9.7520   15.5800 C   0  0  0  0  0  0  0  0  0  0  0  0
   -1.9550    9.8130   16.6970 C   0  0  0  0  0  0  0  0  0  0  0  0
   -2.2610   10.6970   17.7530 C   0  0  0  0  0  0  0  0  0  0  0  0
   -2.3210   12.4780   20.5610 H   0  0  0  0  0  0  0  0  0  0  0  0
   -4.2070   12.9280   18.9730 H   0  0  0  0  0  0  0  0  0  0  0  0
   -5.1400   12.0680   16.4680 H   0  0  0  0  0  0  0  0  0  0  0  0
   -4.5720   10.4960   14.6250 H   0  0  0  0  0  0  0  0  0  0  0  0
   -2.5600    9.0710   14.7670 H   0  0  0  0  0  0  0  0  0  0  0  0
   -1.0730    9.1810   16.7430 H   0  0  0  0  0  0  0  0  0  0  0  0
    0.0350   11.1160   20.8010 N   0  0  0  0  0  0  0  0  0  0  0  0
    1.2310   11.9210   20.5130 C   0  0  0  0  0  0  0  0  0  0  0  0
    1.3290   12.1130   19.4400 H   0  0  0  0  0  0  0  0  0  0  0  0
    2.1540   11.3980   20.7870 H   0  0  0  0  0  0  0  0  0  0  0  0
    1.2150   12.8800   21.0440 H   0  0  0  0  0  0  0  0  0  0  0  0
    0.2420   10.1680   21.9250 C   0  0  0  0  0  0  0  0  0  0  0  0
    1.2240   10.3480   22.3820 H   0  0  0  0  0  0  0  0  0  0  0  0
    0.1900    8.7130   21.4260 C   0  0  0  0  0  0  0  0  0  0  0  0
   -0.6790    8.1700   21.8050 H   0  0  0  0  0  0  0  0  0  0  0  0
    1.0910    8.1610   21.7200 H   0  0  0  0  0  0  0  0  0  0  0  0
    0.1210    8.6800   20.3330 H   0  0  0  0  0  0  0  0  0  0  0  0
   -0.8080   10.2960   23.0450 C   0  0  0  0  0  0  0  0  0  0  0  0
   -0.4350   10.8940   23.8830 H   0  0  0  0  0  0  0  0  0  0  0  0
   -1.7330   10.7520   22.6760 H   0  0  0  0  0  0  0  0  0  0  0  0
   -1.0620    9.3110   23.4540 H   0  0  0  0  0  0  0  0  0  0  0  0
  1  2  1  0  0  0  0
  1 19  1  0  0  0  0
  3  1  1  0  0  0  0
  4  1  1  0  0  0  0
  4  5  2  0  0  0  0
  5 13  1  0  0  0  0
  6 14  1  0  0  0  0
  6  5  1  0  0  0  0
  7 12  1  0  0  0  0
  7  6  1  0  0  0  0
  8  7  2  0  0  0  0
  9 10  2  0  0  0  0
  9  8  1  0  0  0  0
 10 11  1  0  0  0  0
 11 18  1  0  0  0  0
 11 12  2  0  0  0  0
 12  4  1  0  0  0  0
 15  8  1  0  0  0  0
 16  9  1  0  0  0  0
 17 10  1  0  0  0  0
 19 24  1  0  0  0  0
 20 22  1  0  0  0  0
 20 19  1  0  0  0  0
 20 23  1  0  0  0  0
 21 20  1  0  0  0  0
 24 25  1  0  0  0  0
 24 30  1  0  0  0  0
 26 28  1  0  0  0  0
 26 27  1  0  0  0  0
 26 24  1  0  0  0  0
 29 26  1  0  0  0  0
 30 33  1  0  0  0  0
 30 31  1  0  0  0  0
 32 30  1  0  0  0  0
M  END
>  <MODEL>
26

>  <REMARK>
 VINA RESULT:    -4.873      7.906      9.175
 INTER + INTRA:          -6.604
 INTER:                  -6.227
 INTRA:                  -0.376
 UNBOUND:                -0.449
  Name = 
  6 active torsions:
  status: ('A' for Active; 'I' for Inactive)
    1  A    between atoms: C_1  and  C_2
    2  A    between atoms: C_2  and  C_3
    3  A    between atoms: C_2  and  N_4
    4  A    between atoms: N_4  and  C_5
    5  A    between atoms: N_4  and  C_6
    6  A    between atoms: C_6  and  C_7
                            x       y       z     vdW  Elec       q    Type
                         _______ _______ _______ _____ _____    ______ ____

>  <TORSDO>
F 6

$$$$
=
 OpenBabel07192307433D

 33 34  0  0  0  0  0  0  0  0999 V2000
    2.8440    6.3080   17.8570 C   0  0  0  0  0  0  0  0  0  0  0  0
    2.5190    6.5710   16.8460 H   0  0  0  0  0  0  0  0  0  0  0  0
    2.5010    7.1180   18.5110 H   0  0  0  0  0  0  0  0  0  0  0  0
    2.1570    5.0120   18.1810 C   0  0  0  0  0  0  0  0  0  0  0  0
    1.4530    4.2100   17.2990 C   0  0  0  0  0  0  0  0  0  0  0  0
    0.9760    3.1280   17.9820 N   0  0  0  0  0  0  0  0  0  0  0  0
    1.3370    3.2030   19.3070 C   0  0  0  0  0  0  0  0  0  0  0  0
    1.0650    2.3280   20.3650 C   0  0  0  0  0  0  0  0  0  0  0  0
    1.5660    2.6600   21.6260 C   0  0  0  0  0  0  0  0  0  0  0  0
    2.3090    3.8220   21.8190 C   0  0  0  0  0  0  0  0  0  0  0  0
    2.5720    4.6860   20.7490 C   0  0  0  0  0  0  0  0  0  0  0  0
    2.0790    4.3760   19.4650 C   0  0  0  0  0  0  0  0  0  0  0  0
    1.2710    4.3250   16.2390 H   0  0  0  0  0  0  0  0  0  0  0  0
    0.4360    2.3770   17.5770 H   0  0  0  0  0  0  0  0  0  0  0  0
    0.4880    1.4220   20.2180 H   0  0  0  0  0  0  0  0  0  0  0  0
    1.3730    2.0010   22.4700 H   0  0  0  0  0  0  0  0  0  0  0  0
    2.6900    4.0620   22.8080 H   0  0  0  0  0  0  0  0  0  0  0  0
    3.1550    5.5870   20.9140 H   0  0  0  0  0  0  0  0  0  0  0  0
    4.3160    6.1570   17.9380 N   0  0  0  0  0  0  0  0  0  0  0  0
    4.9580    7.1940   17.1190 C   0  0  0  0  0  0  0  0  0  0  0  0
    6.0440    7.1850   17.2520 H   0  0  0  0  0  0  0  0  0  0  0  0
    4.6500    8.2030   17.4170 H   0  0  0  0  0  0  0  0  0  0  0  0
    4.7310    7.0730   16.0540 H   0  0  0  0  0  0  0  0  0  0  0  0
    4.7370    4.7850   17.5540 C   0  0  0  0  0  0  0  0  0  0  0  0
    3.8830    4.1000   17.6430 H   0  0  0  0  0  0  0  0  0  0  0  0
    5.8660    4.2850   18.4730 C   0  0  0  0  0  0  0  0  0  0  0  0
    6.8360    4.7230   18.2210 H   0  0  0  0  0  0  0  0  0  0  0  0
    5.9620    3.1950   18.4260 H   0  0  0  0  0  0  0  0  0  0  0  0
    5.6670    4.5580   19.5150 H   0  0  0  0  0  0  0  0  0  0  0  0
    5.2540    4.6770   16.1070 C   0  0  0  0  0  0  0  0  0  0  0  0
    5.3970    3.6350   15.8050 H   0  0  0  0  0  0  0  0  0  0  0  0
    4.5670    5.1550   15.4000 H   0  0  0  0  0  0  0  0  0  0  0  0
    6.2300    5.1670   16.0060 H   0  0  0  0  0  0  0  0  0  0  0  0
  1 19  1  0  0  0  0
  1  4  1  0  0  0  0
  1  3  1  0  0  0  0
  2  1  1  0  0  0  0
  4 12  1  0  0  0  0
  5  6  1  0  0  0  0
  5  4  2  0  0  0  0
  6  7  1  0  0  0  0
  7 12  2  0  0  0  0
  7  8  1  0  0  0  0
  8  9  2  0  0  0  0
  9 10  1  0  0  0  0
  9 16  1  0  0  0  0
 10 17  1  0  0  0  0
 11 18  1  0  0  0  0
 11 10  2  0  0  0  0
 12 11  1  0  0  0  0
 13  5  1  0  0  0  0
 14  6  1  0  0  0  0
 15  8  1  0  0  0  0
 20 21  1  0  0  0  0
 20 22  1  0  0  0  0
 20 19  1  0  0  0  0
 23 20  1  0  0  0  0
 24 25  1  0  0  0  0
 24 19  1  0  0  0  0
 24 26  1  0  0  0  0
 26 29  1  0  0  0  0
 27 26  1  0  0  0  0
 28 26  1  0  0  0  0
 30 24  1  0  0  0  0
 31 30  1  0  0  0  0
 32 30  1  0  0  0  0
 33 30  1  0  0  0  0
M  END
>  <MODEL>
27

>  <REMARK>
 VINA RESULT:    -4.853      1.781      2.751
 INTER + INTRA:          -6.579
 INTER:                  -6.380
 INTRA:                  -0.199
 UNBOUND:                -0.449
  Name = 
  6 active torsions:
  status: ('A' for Active; 'I' for Inactive)
    1  A    between atoms: C_1  and  C_2
    2  A    between atoms: C_2  and  C_3
    3  A    between atoms: C_2  and  N_4
    4  A    between atoms: N_4  and  C_5
    5  A    between atoms: N_4  and  C_6
    6  A    between atoms: C_6  and  C_7
                            x       y       z     vdW  Elec       q    Type
                         _______ _______ _______ _____ _____    ______ ____

>  <TORSDO>
F 6

$$$$
=
 OpenBabel07192307433D

 33 34  0  0  0  0  0  0  0  0999 V2000
    3.7140    6.9900   17.9250 C   0  0  0  0  0  0  0  0  0  0  0  0
    4.4070    7.7530   18.2910 H   0  0  0  0  0  0  0  0  0  0  0  0
    3.7500    7.0410   16.8300 H   0  0  0  0  0  0  0  0  0  0  0  0
    4.2450    5.6790   18.4310 C   0  0  0  0  0  0  0  0  0  0  0  0
    5.4220    5.4850   19.1340 C   0  0  0  0  0  0  0  0  0  0  0  0
    5.5510    4.1520   19.4050 N   0  0  0  0  0  0  0  0  0  0  0  0
    4.4880    3.4550   18.8810 C   0  0  0  0  0  0  0  0  0  0  0  0
    4.2090    2.0820   18.9110 C   0  0  0  0  0  0  0  0  0  0  0  0
    3.0380    1.6450   18.2880 C   0  0  0  0  0  0  0  0  0  0  0  0
    2.1810    2.5460   17.6610 C   0  0  0  0  0  0  0  0  0  0  0  0
    2.4740    3.9150   17.6410 C   0  0  0  0  0  0  0  0  0  0  0  0
    3.6510    4.3840   18.2620 C   0  0  0  0  0  0  0  0  0  0  0  0
    6.1640    6.1960   19.4700 H   0  0  0  0  0  0  0  0  0  0  0  0
    6.3140    3.7340   19.9170 H   0  0  0  0  0  0  0  0  0  0  0  0
    4.8740    1.3790   19.4000 H   0  0  0  0  0  0  0  0  0  0  0  0
    2.7920    0.5860   18.2930 H   0  0  0  0  0  0  0  0  0  0  0  0
    1.2740    2.1860   17.1820 H   0  0  0  0  0  0  0  0  0  0  0  0
    1.7960    4.6060   17.1500 H   0  0  0  0  0  0  0  0  0  0  0  0
    2.3350    7.2220   18.4150 N   0  0  0  0  0  0  0  0  0  0  0  0
    1.7910    8.4330   17.7840 C   0  0  0  0  0  0  0  0  0  0  0  0
    0.7330    8.5660   18.0320 H   0  0  0  0  0  0  0  0  0  0  0  0
    1.8140    8.3720   16.6900 H   0  0  0  0  0  0  0  0  0  0  0  0
    2.3410    9.3320   18.0840 H   0  0  0  0  0  0  0  0  0  0  0  0
    2.2950    7.2840   19.8980 C   0  0  0  0  0  0  0  0  0  0  0  0
    3.3190    7.3460   20.2910 H   0  0  0  0  0  0  0  0  0  0  0  0
    1.6210    6.0270   20.4770 C   0  0  0  0  0  0  0  0  0  0  0  0
    1.0790    5.4560   19.7200 H   0  0  0  0  0  0  0  0  0  0  0  0
    0.9170    6.2870   21.2760 H   0  0  0  0  0  0  0  0  0  0  0  0
    2.3680    5.3460   20.9000 H   0  0  0  0  0  0  0  0  0  0  0  0
    1.5250    8.5000   20.4470 C   0  0  0  0  0  0  0  0  0  0  0  0
    2.0410    8.9550   21.2990 H   0  0  0  0  0  0  0  0  0  0  0  0
    1.3830    9.2650   19.6760 H   0  0  0  0  0  0  0  0  0  0  0  0
    0.5340    8.2020   20.8070 H   0  0  0  0  0  0  0  0  0  0  0  0
  1  2  1  0  0  0  0
  1 19  1  0  0  0  0
  1  4  1  0  0  0  0
  3  1  1  0  0  0  0
  4  5  2  0  0  0  0
  5  6  1  0  0  0  0
  5 13  1  0  0  0  0
  6 14  1  0  0  0  0
  7  8  1  0  0  0  0
  7  6  1  0  0  0  0
  8 15  1  0  0  0  0
  9 16  1  0  0  0  0
  9  8  2  0  0  0  0
 10  9  1  0  0  0  0
 11 10  2  0  0  0  0
 11 12  1  0  0  0  0
 12  4  1  0  0  0  0
 12  7  2  0  0  0  0
 17 10  1  0  0  0  0
 18 11  1  0  0  0  0
 19 24  1  0  0  0  0
 20 21  1  0  0  0  0
 20 23  1  0  0  0  0
 20 19  1  0  0  0  0
 22 20  1  0  0  0  0
 24 25  1  0  0  0  0
 24 30  1  0  0  0  0
 24 26  1  0  0  0  0
 26 29  1  0  0  0  0
 26 28  1  0  0  0  0
 27 26  1  0  0  0  0
 30 33  1  0  0  0  0
 30 31  1  0  0  0  0
 32 30  1  0  0  0  0
M  END
>  <MODEL>
28

>  <REMARK>
 VINA RESULT:    -4.822      2.213      3.835
 INTER + INTRA:          -6.539
 INTER:                  -6.415
 INTRA:                  -0.125
 UNBOUND:                -0.449
  Name = 
  6 active torsions:
  status: ('A' for Active; 'I' for Inactive)
    1  A    between atoms: C_1  and  C_2
    2  A    between atoms: C_2  and  C_3
    3  A    between atoms: C_2  and  N_4
    4  A    between atoms: N_4  and  C_5
    5  A    between atoms: N_4  and  C_6
    6  A    between atoms: C_6  and  C_7
                            x       y       z     vdW  Elec       q    Type
                         _______ _______ _______ _____ _____    ______ ____

>  <TORSDO>
F 6

$$$$
=
 OpenBabel07192307433D

 33 34  0  0  0  0  0  0  0  0999 V2000
    2.5830    7.0530   19.9130 C   0  0  0  0  0  0  0  0  0  0  0  0
    2.5950    7.3340   20.9700 H   0  0  0  0  0  0  0  0  0  0  0  0
    3.6190    7.1340   19.5620 H   0  0  0  0  0  0  0  0  0  0  0  0
    2.0990    5.6320   19.8730 C   0  0  0  0  0  0  0  0  0  0  0  0
    1.2420    5.0290   20.7770 C   0  0  0  0  0  0  0  0  0  0  0  0
    1.0530    3.7310   20.3960 N   0  0  0  0  0  0  0  0  0  0  0  0
    1.7810    3.4550   19.2630 C   0  0  0  0  0  0  0  0  0  0  0  0
    1.8940    2.2660   18.5320 C   0  0  0  0  0  0  0  0  0  0  0  0
    2.7180    2.2740   17.4040 C   0  0  0  0  0  0  0  0  0  0  0  0
    3.4000    3.4270   17.0230 C   0  0  0  0  0  0  0  0  0  0  0  0
    3.2750    4.6080   17.7650 C   0  0  0  0  0  0  0  0  0  0  0  0
    2.4510    4.6280   18.9090 C   0  0  0  0  0  0  0  0  0  0  0  0
    0.7470    5.4320   21.6500 H   0  0  0  0  0  0  0  0  0  0  0  0
    0.4630    3.0650   20.8740 H   0  0  0  0  0  0  0  0  0  0  0  0
    1.3630    1.3680   18.8260 H   0  0  0  0  0  0  0  0  0  0  0  0
    2.8270    1.3670   16.8140 H   0  0  0  0  0  0  0  0  0  0  0  0
    4.0350    3.4130   16.1410 H   0  0  0  0  0  0  0  0  0  0  0  0
    3.8110    5.5000   17.4550 H   0  0  0  0  0  0  0  0  0  0  0  0
    1.6920    7.9340   19.1220 N   0  0  0  0  0  0  0  0  0  0  0  0
    2.3620    8.3080   17.8690 C   0  0  0  0  0  0  0  0  0  0  0  0
    3.3540    7.8510   17.8010 H   0  0  0  0  0  0  0  0  0  0  0  0
    2.5480    9.3850   17.8070 H   0  0  0  0  0  0  0  0  0  0  0  0
    1.7760    8.0140   16.9900 H   0  0  0  0  0  0  0  0  0  0  0  0
    1.2640    9.1160   19.9150 C   0  0  0  0  0  0  0  0  0  0  0  0
    2.1430    9.7210   20.1760 H   0  0  0  0  0  0  0  0  0  0  0  0
    0.5670    8.6750   21.2150 C   0  0  0  0  0  0  0  0  0  0  0  0
    1.2670    8.2680   21.9490 H   0  0  0  0  0  0  0  0  0  0  0  0
   -0.1980    7.9160   21.0160 H   0  0  0  0  0  0  0  0  0  0  0  0
    0.0740    9.5260   21.6980 H   0  0  0  0  0  0  0  0  0  0  0  0
    0.2830   10.0400   19.1700 C   0  0  0  0  0  0  0  0  0  0  0  0
    0.7320   10.4610   18.2650 H   0  0  0  0  0  0  0  0  0  0  0  0
   -0.6330    9.5080   18.8900 H   0  0  0  0  0  0  0  0  0  0  0  0
   -0.0040   10.8910   19.7990 H   0  0  0  0  0  0  0  0  0  0  0  0
  1  2  1  0  0  0  0
  3  1  1  0  0  0  0
  4  1  1  0  0  0  0
  4  5  2  0  0  0  0
  5 13  1  0  0  0  0
  6  5  1  0  0  0  0
  6 14  1  0  0  0  0
  7  6  1  0  0  0  0
  8 15  1  0  0  0  0
  8  7  2  0  0  0  0
  9  8  1  0  0  0  0
 10  9  2  0  0  0  0
 10 11  1  0  0  0  0
 11 12  2  0  0  0  0
 12  7  1  0  0  0  0
 12  4  1  0  0  0  0
 16  9  1  0  0  0  0
 17 10  1  0  0  0  0
 18 11  1  0  0  0  0
 19  1  1  0  0  0  0
 19 24  1  0  0  0  0
 20 19  1  0  0  0  0
 21 20  1  0  0  0  0
 22 20  1  0  0  0  0
 23 20  1  0  0  0  0
 24 25  1  0  0  0  0
 24 26  1  0  0  0  0
 26 29  1  0  0  0  0
 26 27  1  0  0  0  0
 28 26  1  0  0  0  0
 30 33  1  0  0  0  0
 30 24  1  0  0  0  0
 31 30  1  0  0  0  0
 32 30  1  0  0  0  0
M  END
>  <MODEL>
29

>  <REMARK>
 VINA RESULT:    -4.701      2.868      4.646
 INTER + INTRA:          -6.387
 INTER:                  -6.021
 INTRA:                  -0.366
 UNBOUND:                -0.449
  Name = 
  6 active torsions:
  status: ('A' for Active; 'I' for Inactive)
    1  A    between atoms: C_1  and  C_2
    2  A    between atoms: C_2  and  C_3
    3  A    between atoms: C_2  and  N_4
    4  A    between atoms: N_4  and  C_5
    5  A    between atoms: N_4  and  C_6
    6  A    between atoms: C_6  and  C_7
                            x       y       z     vdW  Elec       q    Type
                         _______ _______ _______ _____ _____    ______ ____

>  <TORSDO>
F 6

$$$$
=
 OpenBabel07192307433D

 33 34  0  0  0  0  0  0  0  0999 V2000
    1.0890    5.9800   20.3220 C   0  0  0  0  0  0  0  0  0  0  0  0
    0.3730    5.8690   19.5030 H   0  0  0  0  0  0  0  0  0  0  0  0
    0.4960    6.1600   21.2270 H   0  0  0  0  0  0  0  0  0  0  0  0
    1.8270    4.6740   20.3990 C   0  0  0  0  0  0  0  0  0  0  0  0
    2.2450    4.0320   21.5520 C   0  0  0  0  0  0  0  0  0  0  0  0
    2.8850    2.8780   21.1990 N   0  0  0  0  0  0  0  0  0  0  0  0
    2.9120    2.7480   19.8300 C   0  0  0  0  0  0  0  0  0  0  0  0
    3.4630    1.7370   19.0320 C   0  0  0  0  0  0  0  0  0  0  0  0
    3.3410    1.8660   17.6470 C   0  0  0  0  0  0  0  0  0  0  0  0
    2.6940    2.9630   17.0830 C   0  0  0  0  0  0  0  0  0  0  0  0
    2.1480    3.9640   17.8960 C   0  0  0  0  0  0  0  0  0  0  0  0
    2.2570    3.8610   19.2980 C   0  0  0  0  0  0  0  0  0  0  0  0
    2.1230    4.3060   22.5910 H   0  0  0  0  0  0  0  0  0  0  0  0
    3.2810    2.2110   21.8450 H   0  0  0  0  0  0  0  0  0  0  0  0
    3.9650    0.8810   19.4680 H   0  0  0  0  0  0  0  0  0  0  0  0
    3.7570    1.0980   16.9990 H   0  0  0  0  0  0  0  0  0  0  0  0
    2.6090    3.0450   16.0030 H   0  0  0  0  0  0  0  0  0  0  0  0
    1.6450    4.8130   17.4420 H   0  0  0  0  0  0  0  0  0  0  0  0
    2.0280    7.1000   20.0810 N   0  0  0  0  0  0  0  0  0  0  0  0
    1.6420    8.2480   20.9140 C   0  0  0  0  0  0  0  0  0  0  0  0
    2.0010    9.1880   20.4810 H   0  0  0  0  0  0  0  0  0  0  0  0
    2.1010    8.2080   21.9080 H   0  0  0  0  0  0  0  0  0  0  0  0
    0.5560    8.3110   21.0440 H   0  0  0  0  0  0  0  0  0  0  0  0
    2.0980    7.4410   18.6360 C   0  0  0  0  0  0  0  0  0  0  0  0
    1.3950    6.8100   18.0760 H   0  0  0  0  0  0  0  0  0  0  0  0
    3.5170    7.2020   18.0900 C   0  0  0  0  0  0  0  0  0  0  0  0
    3.9220    6.2300   18.3850 H   0  0  0  0  0  0  0  0  0  0  0  0
    4.2100    7.9780   18.4340 H   0  0  0  0  0  0  0  0  0  0  0  0
    3.5190    7.2160   16.9940 H   0  0  0  0  0  0  0  0  0  0  0  0
    1.7380    8.9060   18.3270 C   0  0  0  0  0  0  0  0  0  0  0  0
    2.6270    9.5440   18.3030 H   0  0  0  0  0  0  0  0  0  0  0  0
    1.2170    8.9960   17.3680 H   0  0  0  0  0  0  0  0  0  0  0  0
    1.0810    9.3170   19.1020 H   0  0  0  0  0  0  0  0  0  0  0  0
  1  4  1  0  0  0  0
  1  3  1  0  0  0  0
  2  1  1  0  0  0  0
  4  5  2  0  0  0  0
  5 13  1  0  0  0  0
  6  5  1  0  0  0  0
  6 14  1  0  0  0  0
  7  6  1  0  0  0  0
  8 15  1  0  0  0  0
  8  7  2  0  0  0  0
  9  8  1  0  0  0  0
 10  9  2  0  0  0  0
 10 11  1  0  0  0  0
 11 12  2  0  0  0  0
 12  7  1  0  0  0  0
 12  4  1  0  0  0  0
 16  9  1  0  0  0  0
 17 10  1  0  0  0  0
 18 11  1  0  0  0  0
 19  1  1  0  0  0  0
 19 20  1  0  0  0  0
 20 23  1  0  0  0  0
 20 22  1  0  0  0  0
 21 20  1  0  0  0  0
 24 19  1  0  0  0  0
 25 24  1  0  0  0  0
 26 27  1  0  0  0  0
 26 28  1  0  0  0  0
 26 24  1  0  0  0  0
 29 26  1  0  0  0  0
 30 24  1  0  0  0  0
 30 33  1  0  0  0  0
 31 30  1  0  0  0  0
 32 30  1  0  0  0  0
M  END
>  <MODEL>
30

>  <REMARK>
 VINA RESULT:    -4.528      2.916      4.192
 INTER + INTRA:          -6.169
 INTER:                  -5.795
 INTRA:                  -0.374
 UNBOUND:                -0.449
  Name = 
  6 active torsions:
  status: ('A' for Active; 'I' for Inactive)
    1  A    between atoms: C_1  and  C_2
    2  A    between atoms: C_2  and  C_3
    3  A    between atoms: C_2  and  N_4
    4  A    between atoms: N_4  and  C_5
    5  A    between atoms: N_4  and  C_6
    6  A    between atoms: C_6  and  C_7
                            x       y       z     vdW  Elec       q    Type
                         _______ _______ _______ _____ _____    ______ ____

>  <TORSDO>
F 6

$$$$
=
 OpenBabel07192307433D

 33 34  0  0  0  0  0  0  0  0999 V2000
   -0.0860   11.3860   20.1420 C   0  0  0  0  0  0  0  0  0  0  0  0
   -0.9070   11.4970   20.8560 H   0  0  0  0  0  0  0  0  0  0  0  0
    0.6140   12.2050   20.3490 H   0  0  0  0  0  0  0  0  0  0  0  0
    0.5310   10.0490   20.4330 C   0  0  0  0  0  0  0  0  0  0  0  0
    0.5090    9.3780   21.6440 C   0  0  0  0  0  0  0  0  0  0  0  0
    1.1850    8.2010   21.5010 N   0  0  0  0  0  0  0  0  0  0  0  0
    1.6700    8.0820   20.2200 C   0  0  0  0  0  0  0  0  0  0  0  0
    2.4190    7.0550   19.6320 C   0  0  0  0  0  0  0  0  0  0  0  0
    2.7800    7.2020   18.2900 C   0  0  0  0  0  0  0  0  0  0  0  0
    2.4050    8.3310   17.5670 C   0  0  0  0  0  0  0  0  0  0  0  0
    1.6550    9.3480   18.1700 C   0  0  0  0  0  0  0  0  0  0  0  0
    1.2780    9.2270   19.5240 C   0  0  0  0  0  0  0  0  0  0  0  0
    0.0520    9.6480   22.5870 H   0  0  0  0  0  0  0  0  0  0  0  0
    1.3130    7.5110   22.2280 H   0  0  0  0  0  0  0  0  0  0  0  0
    2.7110    6.1740   20.1920 H   0  0  0  0  0  0  0  0  0  0  0  0
    3.3610    6.4220   17.8030 H   0  0  0  0  0  0  0  0  0  0  0  0
    2.6940    8.4260   16.5230 H   0  0  0  0  0  0  0  0  0  0  0  0
    1.3680   10.2220   17.5930 H   0  0  0  0  0  0  0  0  0  0  0  0
   -0.5650   11.4500   18.7410 N   0  0  0  0  0  0  0  0  0  0  0  0
   -0.6620   12.8560   18.3220 C   0  0  0  0  0  0  0  0  0  0  0  0
    0.3160   13.2470   18.0250 H   0  0  0  0  0  0  0  0  0  0  0  0
   -0.9840   13.5080   19.1410 H   0  0  0  0  0  0  0  0  0  0  0  0
   -1.3630   12.9860   17.4900 H   0  0  0  0  0  0  0  0  0  0  0  0
   -1.8470   10.7170   18.5780 C   0  0  0  0  0  0  0  0  0  0  0  0
   -1.9560    9.9840   19.3890 H   0  0  0  0  0  0  0  0  0  0  0  0
   -1.8790    9.9700   17.2320 C   0  0  0  0  0  0  0  0  0  0  0  0
   -1.5900   10.6080   16.3920 H   0  0  0  0  0  0  0  0  0  0  0  0
   -2.8770    9.5670   17.0270 H   0  0  0  0  0  0  0  0  0  0  0  0
   -1.1750    9.1310   17.2380 H   0  0  0  0  0  0  0  0  0  0  0  0
   -3.0900   11.6250   18.6180 C   0  0  0  0  0  0  0  0  0  0  0  0
   -3.9030   11.1730   19.1950 H   0  0  0  0  0  0  0  0  0  0  0  0
   -2.8570   12.6040   19.0500 H   0  0  0  0  0  0  0  0  0  0  0  0
   -3.4820   11.7920   17.6080 H   0  0  0  0  0  0  0  0  0  0  0  0
  1  3  1  0  0  0  0
  1  4  1  0  0  0  0
  1  2  1  0  0  0  0
  4  5  2  0  0  0  0
  5 13  1  0  0  0  0
  6  5  1  0  0  0  0
  6 14  1  0  0  0  0
  7  6  1  0  0  0  0
  8 15  1  0  0  0  0
  8  7  1  0  0  0  0
  9  8  2  0  0  0  0
 10 11  2  0  0  0  0
 10  9  1  0  0  0  0
 11 12  1  0  0  0  0
 12  7  2  0  0  0  0
 12  4  1  0  0  0  0
 16  9  1  0  0  0  0
 17 10  1  0  0  0  0
 18 11  1  0  0  0  0
 19  1  1  0  0  0  0
 20 19  1  0  0  0  0
 20 22  1  0  0  0  0
 21 20  1  0  0  0  0
 23 20  1  0  0  0  0
 24 30  1  0  0  0  0
 24 19  1  0  0  0  0
 24 25  1  0  0  0  0
 26 29  1  0  0  0  0
 26 24  1  0  0  0  0
 27 26  1  0  0  0  0
 28 26  1  0  0  0  0
 30 32  1  0  0  0  0
 30 31  1  0  0  0  0
 33 30  1  0  0  0  0
M  END
>  <MODEL>
31

>  <REMARK>
 VINA RESULT:    -4.526      5.903      7.580
 INTER + INTRA:          -6.166
 INTER:                  -5.968
 INTRA:                  -0.198
 UNBOUND:                -0.449
  Name = 
  6 active torsions:
  status: ('A' for Active; 'I' for Inactive)
    1  A    between atoms: C_1  and  C_2
    2  A    between atoms: C_2  and  C_3
    3  A    between atoms: C_2  and  N_4
    4  A    between atoms: N_4  and  C_5
    5  A    between atoms: N_4  and  C_6
    6  A    between atoms: C_6  and  C_7
                            x       y       z     vdW  Elec       q    Type
                         _______ _______ _______ _____ _____    ______ ____

>  <TORSDO>
F 6

$$$$
=
 OpenBabel07192307433D

 33 34  0  0  0  0  0  0  0  0999 V2000
    2.5620    7.5760   19.6680 C   0  0  0  0  0  0  0  0  0  0  0  0
    2.3610    7.3690   20.7230 H   0  0  0  0  0  0  0  0  0  0  0  0
    3.5160    8.1160   19.6380 H   0  0  0  0  0  0  0  0  0  0  0  0
    2.6670    6.2350   19.0010 C   0  0  0  0  0  0  0  0  0  0  0  0
    1.8830    5.1240   19.2590 C   0  0  0  0  0  0  0  0  0  0  0  0
    2.2970    4.1040   18.4510 N   0  0  0  0  0  0  0  0  0  0  0  0
    3.3520    4.5120   17.6700 C   0  0  0  0  0  0  0  0  0  0  0  0
    4.0890    3.8060   16.7110 C   0  0  0  0  0  0  0  0  0  0  0  0
    5.1230    4.4820   16.0600 C   0  0  0  0  0  0  0  0  0  0  0  0
    5.4070    5.8130   16.3580 C   0  0  0  0  0  0  0  0  0  0  0  0
    4.6600    6.5040   17.3180 C   0  0  0  0  0  0  0  0  0  0  0  0
    3.6100    5.8460   17.9920 C   0  0  0  0  0  0  0  0  0  0  0  0
    1.0580    4.9920   19.9460 H   0  0  0  0  0  0  0  0  0  0  0  0
    1.8890    3.1800   18.4260 H   0  0  0  0  0  0  0  0  0  0  0  0
    3.8690    2.7700   16.4760 H   0  0  0  0  0  0  0  0  0  0  0  0
    5.7140    3.9630   15.3100 H   0  0  0  0  0  0  0  0  0  0  0  0
    6.2160    6.3220   15.8390 H   0  0  0  0  0  0  0  0  0  0  0  0
    4.8910    7.5420   17.5390 H   0  0  0  0  0  0  0  0  0  0  0  0
    1.4830    8.3860   19.0550 N   0  0  0  0  0  0  0  0  0  0  0  0
    2.0050    9.0690   17.8630 C   0  0  0  0  0  0  0  0  0  0  0  0
    3.0540    9.3530   17.9970 H   0  0  0  0  0  0  0  0  0  0  0  0
    1.4850   10.0140   17.6700 H   0  0  0  0  0  0  0  0  0  0  0  0
    1.9190    8.4460   16.9650 H   0  0  0  0  0  0  0  0  0  0  0  0
    0.8920    9.3280   20.0400 C   0  0  0  0  0  0  0  0  0  0  0  0
    1.6330   10.0920   20.3080 H   0  0  0  0  0  0  0  0  0  0  0  0
    0.4680    8.5820   21.3180 C   0  0  0  0  0  0  0  0  0  0  0  0
   -0.5770    8.7630   21.5820 H   0  0  0  0  0  0  0  0  0  0  0  0
    1.0910    8.8750   22.1720 H   0  0  0  0  0  0  0  0  0  0  0  0
    0.5700    7.4990   21.1870 H   0  0  0  0  0  0  0  0  0  0  0  0
   -0.3540   10.0680   19.5180 C   0  0  0  0  0  0  0  0  0  0  0  0
   -0.9830   10.4290   20.3380 H   0  0  0  0  0  0  0  0  0  0  0  0
   -0.0780   10.9210   18.8880 H   0  0  0  0  0  0  0  0  0  0  0  0
   -0.9810    9.3990   18.9170 H   0  0  0  0  0  0  0  0  0  0  0  0
  1  2  1  0  0  0  0
  3  1  1  0  0  0  0
  4  5  2  0  0  0  0
  4  1  1  0  0  0  0
  5 13  1  0  0  0  0
  6  5  1  0  0  0  0
  7 12  1  0  0  0  0
  7  6  1  0  0  0  0
  8  7  2  0  0  0  0
  9 10  2  0  0  0  0
  9  8  1  0  0  0  0
 10 11  1  0  0  0  0
 11 18  1  0  0  0  0
 11 12  2  0  0  0  0
 12  4  1  0  0  0  0
 14  6  1  0  0  0  0
 15  8  1  0  0  0  0
 16  9  1  0  0  0  0
 17 10  1  0  0  0  0
 19  1  1  0  0  0  0
 19 24  1  0  0  0  0
 20 21  1  0  0  0  0
 20 19  1  0  0  0  0
 22 20  1  0  0  0  0
 23 20  1  0  0  0  0
 24 25  1  0  0  0  0
 24 26  1  0  0  0  0
 26 27  1  0  0  0  0
 26 28  1  0  0  0  0
 29 26  1  0  0  0  0
 30 24  1  0  0  0  0
 30 31  1  0  0  0  0
 32 30  1  0  0  0  0
 33 30  1  0  0  0  0
M  END
>  <MODEL>
32

>  <REMARK>
 VINA RESULT:    -4.513      3.078      5.368
 INTER + INTRA:          -6.150
 INTER:                  -5.852
 INTRA:                  -0.298
 UNBOUND:                -0.449
  Name = 
  6 active torsions:
  status: ('A' for Active; 'I' for Inactive)
    1  A    between atoms: C_1  and  C_2
    2  A    between atoms: C_2  and  C_3
    3  A    between atoms: C_2  and  N_4
    4  A    between atoms: N_4  and  C_5
    5  A    between atoms: N_4  and  C_6
    6  A    between atoms: C_6  and  C_7
                            x       y       z     vdW  Elec       q    Type
                         _______ _______ _______ _____ _____    ______ ____

>  <TORSDO>
F 6

$$$$
=
 OpenBabel07192307433D

 33 34  0  0  0  0  0  0  0  0999 V2000
    0.7960   10.6860   19.5190 C   0  0  0  0  0  0  0  0  0  0  0  0
    1.2540   10.8340   18.5370 H   0  0  0  0  0  0  0  0  0  0  0  0
    1.3830   11.2840   20.2260 H   0  0  0  0  0  0  0  0  0  0  0  0
   -0.6090   11.2020   19.3970 C   0  0  0  0  0  0  0  0  0  0  0  0
   -1.2370   12.0900   20.2530 C   0  0  0  0  0  0  0  0  0  0  0  0
   -2.5090   12.3020   19.8030 N   0  0  0  0  0  0  0  0  0  0  0  0
   -2.7440   11.5580   18.6710 C   0  0  0  0  0  0  0  0  0  0  0  0
   -3.8970   11.4590   17.8820 C   0  0  0  0  0  0  0  0  0  0  0  0
   -3.8510   10.6140   16.7700 C   0  0  0  0  0  0  0  0  0  0  0  0
   -2.6970    9.8980   16.4620 C   0  0  0  0  0  0  0  0  0  0  0  0
   -1.5530   10.0100   17.2610 C   0  0  0  0  0  0  0  0  0  0  0  0
   -1.5710   10.8550   18.3900 C   0  0  0  0  0  0  0  0  0  0  0  0
   -0.8670   12.5930   21.1370 H   0  0  0  0  0  0  0  0  0  0  0  0
   -3.1840   12.9170   20.2350 H   0  0  0  0  0  0  0  0  0  0  0  0
   -4.7960   12.0170   18.1190 H   0  0  0  0  0  0  0  0  0  0  0  0
   -4.7290   10.5140   16.1370 H   0  0  0  0  0  0  0  0  0  0  0  0
   -2.6820    9.2460   15.5920 H   0  0  0  0  0  0  0  0  0  0  0  0
   -0.6600    9.4470   17.0070 H   0  0  0  0  0  0  0  0  0  0  0  0
    0.7980    9.2580   19.9150 N   0  0  0  0  0  0  0  0  0  0  0  0
    0.7490    9.1580   21.3800 C   0  0  0  0  0  0  0  0  0  0  0  0
    1.5920    8.5760   21.7650 H   0  0  0  0  0  0  0  0  0  0  0  0
   -0.1400    8.6190   21.7260 H   0  0  0  0  0  0  0  0  0  0  0  0
    0.7530   10.1450   21.8570 H   0  0  0  0  0  0  0  0  0  0  0  0
    1.9630    8.5410   19.3330 C   0  0  0  0  0  0  0  0  0  0  0  0
    2.8900    9.0600   19.6100 H   0  0  0  0  0  0  0  0  0  0  0  0
    1.8630    8.5000   17.7970 C   0  0  0  0  0  0  0  0  0  0  0  0
    2.8420    8.5250   17.3130 H   0  0  0  0  0  0  0  0  0  0  0  0
    1.2720    9.3410   17.4160 H   0  0  0  0  0  0  0  0  0  0  0  0
    1.3790    7.5750   17.4650 H   0  0  0  0  0  0  0  0  0  0  0  0
    2.0970    7.0850   19.8140 C   0  0  0  0  0  0  0  0  0  0  0  0
    2.4300    7.0310   20.8550 H   0  0  0  0  0  0  0  0  0  0  0  0
    1.1490    6.5430   19.7220 H   0  0  0  0  0  0  0  0  0  0  0  0
    2.8460    6.5470   19.2210 H   0  0  0  0  0  0  0  0  0  0  0  0
  1 19  1  0  0  0  0
  1  3  1  0  0  0  0
  2  1  1  0  0  0  0
  4  1  1  0  0  0  0
  4  5  2  0  0  0  0
  5 13  1  0  0  0  0
  6 14  1  0  0  0  0
  6  5  1  0  0  0  0
  7  6  1  0  0  0  0
  8 15  1  0  0  0  0
  8  7  2  0  0  0  0
  9  8  1  0  0  0  0
 10  9  2  0  0  0  0
 10 11  1  0  0  0  0
 11 12  2  0  0  0  0
 12  7  1  0  0  0  0
 12  4  1  0  0  0  0
 16  9  1  0  0  0  0
 17 10  1  0  0  0  0
 18 11  1  0  0  0  0
 19 20  1  0  0  0  0
 20 22  1  0  0  0  0
 20 21  1  0  0  0  0
 20 23  1  0  0  0  0
 24 25  1  0  0  0  0
 24 30  1  0  0  0  0
 24 19  1  0  0  0  0
 26 24  1  0  0  0  0
 27 26  1  0  0  0  0
 28 26  1  0  0  0  0
 29 26  1  0  0  0  0
 30 31  1  0  0  0  0
 32 30  1  0  0  0  0
 33 30  1  0  0  0  0
M  END
>  <MODEL>
33

>  <REMARK>
 VINA RESULT:    -4.469      7.002      8.061
 INTER + INTRA:          -6.095
 INTER:                  -5.645
 INTRA:                  -0.449
 UNBOUND:                -0.449
  Name = 
  6 active torsions:
  status: ('A' for Active; 'I' for Inactive)
    1  A    between atoms: C_1  and  C_2
    2  A    between atoms: C_2  and  C_3
    3  A    between atoms: C_2  and  N_4
    4  A    between atoms: N_4  and  C_5
    5  A    between atoms: N_4  and  C_6
    6  A    between atoms: C_6  and  C_7
                            x       y       z     vdW  Elec       q    Type
                         _______ _______ _______ _____ _____    ______ ____

>  <TORSDO>
F 6

$$$$
