=
 OpenBabel07192307433D

 45 48  0  0  1  0  0  0  0  0999 V2000
    1.7640    3.6330   20.4740 C   0  0  1  0  0  0  0  0  0  0  0  0
    3.0910    3.3270   19.7880 C   0  0  0  0  0  0  0  0  0  0  0  0
    3.3130    4.5540   18.8950 C   0  0  1  0  0  0  0  0  0  0  0  0
    2.6760    5.6540   19.6200 N   0  0  0  0  0  0  0  0  0  0  0  0
    2.4930    6.8760   18.9940 C   0  0  0  0  0  0  0  0  0  0  0  0
    2.8520    7.1040   17.8440 O   0  0  0  0  0  0  0  0  0  0  0  0
    1.8590    5.1440   20.7200 C   0  0  0  0  0  0  0  0  0  0  0  0
    1.6290    3.0910   21.4170 H   0  0  0  0  0  0  0  0  0  0  0  0
    3.8800    3.2410   20.5460 H   0  0  0  0  0  0  0  0  0  0  0  0
    3.0880    2.4060   19.1960 H   0  0  0  0  0  0  0  0  0  0  0  0
    2.7970    4.4330   17.9350 H   0  0  0  0  0  0  0  0  0  0  0  0
    2.4040    5.3500   21.6470 H   0  0  0  0  0  0  0  0  0  0  0  0
    0.8780    5.6270   20.7410 H   0  0  0  0  0  0  0  0  0  0  0  0
    1.8420    7.9640   19.7600 C   0  0  0  0  0  0  0  0  0  0  0  0
    1.7300    7.8360   21.1450 C   0  0  0  0  0  0  0  0  0  0  0  0
    1.1110    8.8430   21.8800 C   0  0  0  0  0  0  0  0  0  0  0  0
    0.5910    9.9700   21.2320 C   0  0  0  0  0  0  0  0  0  0  0  0
    0.6740   10.0940   19.8360 C   0  0  0  0  0  0  0  0  0  0  0  0
    1.3000    9.0760   19.1000 C   0  0  0  0  0  0  0  0  0  0  0  0
    2.1220    6.9540   21.6480 H   0  0  0  0  0  0  0  0  0  0  0  0
    1.0230    8.7490   22.9600 H   0  0  0  0  0  0  0  0  0  0  0  0
    0.1130   10.7210   21.8560 H   0  0  0  0  0  0  0  0  0  0  0  0
    1.3660    9.1050   18.0170 H   0  0  0  0  0  0  0  0  0  0  0  0
    0.1290   11.2340   19.1720 N   0  0  0  0  0  0  0  0  0  0  0  0
    0.6680   12.5010   19.1020 C   0  0  0  0  0  0  0  0  0  0  0  0
   -0.2170   13.2570   18.3700 C   0  0  0  0  0  0  0  0  0  0  0  0
   -1.2900   12.5080   17.9870 N   0  0  0  0  0  0  0  0  0  0  0  0
   -1.0580   11.3080   18.4710 C   0  0  0  0  0  0  0  0  0  0  0  0
    1.6120   12.7740   19.5490 H   0  0  0  0  0  0  0  0  0  0  0  0
   -0.1330   14.3030   18.1020 H   0  0  0  0  0  0  0  0  0  0  0  0
   -1.7230   10.4680   18.3380 H   0  0  0  0  0  0  0  0  0  0  0  0
    4.7710    4.7810   18.6670 C   0  0  0  0  0  0  0  0  0  0  0  0
    5.6400    5.4440   19.4020 N   0  0  0  0  0  0  0  0  0  0  0  0
    6.7850    5.3350   18.6580 C   0  0  0  0  0  0  0  0  0  0  0  0
    6.6480    4.6910   17.4920 N   0  0  0  0  0  0  0  0  0  0  0  0
    5.3030    4.3160   17.4960 O   0  0  0  0  0  0  0  0  0  0  0  0
    8.0740    5.8990   19.0990 C   0  0  0  0  0  0  0  0  0  0  0  0
    8.1140    6.9770   18.9110 H   0  0  0  0  0  0  0  0  0  0  0  0
    8.2140    5.7360   20.1720 H   0  0  0  0  0  0  0  0  0  0  0  0
    8.9070    5.4330   18.5650 H   0  0  0  0  0  0  0  0  0  0  0  0
    0.6620    3.3750   19.5990 O   0  0  0  0  0  0  0  0  0  0  0  0
    0.8050    2.1650   18.8650 C   0  0  0  0  0  0  0  0  0  0  0  0
    1.8580    1.8890   18.7620 H   0  0  0  0  0  0  0  0  0  0  0  0
    0.3900    2.3220   17.8650 H   0  0  0  0  0  0  0  0  0  0  0  0
    0.2500    1.3580   19.3490 H   0  0  0  0  0  0  0  0  0  0  0  0
  1  7  1  0  0  0  0
  1  8  1  1  0  0  0
  2  1  1  0  0  0  0
  2  9  1  0  0  0  0
  3 11  1  6  0  0  0
  3  4  1  0  0  0  0
  3  2  1  0  0  0  0
  4  7  1  0  0  0  0
  5  4  1  0  0  0  0
  5 14  1  0  0  0  0
  6  5  2  0  0  0  0
  7 13  1  0  0  0  0
  7 12  1  0  0  0  0
 10  2  1  0  0  0  0
 14 15  1  0  0  0  0
 15 20  1  0  0  0  0
 15 16  2  0  0  0  0
 16 21  1  0  0  0  0
 17 22  1  0  0  0  0
 17 16  1  0  0  0  0
 18 17  2  0  0  0  0
 19 14  2  0  0  0  0
 19 18  1  0  0  0  0
 23 19  1  0  0  0  0
 24 18  1  0  0  0  0
 25 24  1  0  0  0  0
 25 29  1  0  0  0  0
 26 25  2  0  0  0  0
 27 26  1  0  0  0  0
 27 28  2  0  0  0  0
 28 24  1  0  0  0  0
 30 26  1  0  0  0  0
 31 28  1  0  0  0  0
 32  3  1  0  0  0  0
 32 33  2  0  0  0  0
 34 37  1  0  0  0  0
 34 33  1  0  0  0  0
 35 36  1  0  0  0  0
 35 34  2  0  0  0  0
 36 32  1  0  0  0  0
 37 39  1  0  0  0  0
 38 37  1  0  0  0  0
 40 37  1  0  0  0  0
 41  1  1  0  0  0  0
 42 45  1  0  0  0  0
 42 41  1  0  0  0  0
 43 42  1  0  0  0  0
 44 42  1  0  0  0  0
M  END
>  <MODEL>
1

>  <REMARK>
 VINA RESULT:    -7.518      0.000      0.000
 INTER + INTRA:          -9.501
 INTER:                  -9.771
 INTRA:                   0.270
 UNBOUND:                 0.214
  Name = 
  6 active torsions:
  status: ('A' for Active; 'I' for Inactive)
    1  A    between atoms: C_1  and  O_2
    2  A    between atoms: O_2  and  C_3
    3  A    between atoms: C_5  and  C_6
    4  A    between atoms: C_8  and  C_9
    5  A    between atoms: C_13  and  C_15
    6  A    between atoms: C_19  and  N_20
                            x       y       z     vdW  Elec       q    Type
                         _______ _______ _______ _____ _____    ______ ____

>  <TORSDO>
F 6

$$$$
=
 OpenBabel07192307433D

 45 48  0  0  1  0  0  0  0  0999 V2000
    1.8500    3.9630   20.3430 C   0  0  1  0  0  0  0  0  0  0  0  0
    3.2050    3.8750   19.6490 C   0  0  0  0  0  0  0  0  0  0  0  0
    3.3060    5.2160   18.9100 C   0  0  1  0  0  0  0  0  0  0  0  0
    2.5550    6.1530   19.7480 N   0  0  0  0  0  0  0  0  0  0  0  0
    2.2520    7.4150   19.2660 C   0  0  0  0  0  0  0  0  0  0  0  0
    2.5930    7.8130   18.1570 O   0  0  0  0  0  0  0  0  0  0  0  0
    1.7890    5.4360   20.7660 C   0  0  0  0  0  0  0  0  0  0  0  0
    1.7660    3.3030   21.2140 H   0  0  0  0  0  0  0  0  0  0  0  0
    3.9940    3.7800   20.4060 H   0  0  0  0  0  0  0  0  0  0  0  0
    3.2990    3.0350   18.9540 H   0  0  0  0  0  0  0  0  0  0  0  0
    2.8100    5.1570   17.9330 H   0  0  0  0  0  0  0  0  0  0  0  0
    2.3050    5.5850   21.7200 H   0  0  0  0  0  0  0  0  0  0  0  0
    0.7640    5.8120   20.8250 H   0  0  0  0  0  0  0  0  0  0  0  0
    1.4890    8.3340   20.1420 C   0  0  0  0  0  0  0  0  0  0  0  0
    1.7000    8.2760   21.5200 C   0  0  0  0  0  0  0  0  0  0  0  0
    0.9830    9.1250   22.3600 C   0  0  0  0  0  0  0  0  0  0  0  0
    0.0470   10.0180   21.8270 C   0  0  0  0  0  0  0  0  0  0  0  0
   -0.1920   10.0620   20.4440 C   0  0  0  0  0  0  0  0  0  0  0  0
    0.5330    9.2060   19.6020 C   0  0  0  0  0  0  0  0  0  0  0  0
    2.4180    7.5730   21.9360 H   0  0  0  0  0  0  0  0  0  0  0  0
    1.1460    9.0860   23.4340 H   0  0  0  0  0  0  0  0  0  0  0  0
   -0.4870   10.6510   22.5300 H   0  0  0  0  0  0  0  0  0  0  0  0
    0.3690    9.1770   18.5300 H   0  0  0  0  0  0  0  0  0  0  0  0
   -1.1600   10.9600   19.9010 N   0  0  0  0  0  0  0  0  0  0  0  0
   -1.7630   10.8930   18.6630 C   0  0  0  0  0  0  0  0  0  0  0  0
   -2.6090   11.9750   18.5870 C   0  0  0  0  0  0  0  0  0  0  0  0
   -2.5490   12.7150   19.7300 N   0  0  0  0  0  0  0  0  0  0  0  0
   -1.6860   12.0870   20.4980 C   0  0  0  0  0  0  0  0  0  0  0  0
   -1.5710   10.1100   17.9450 H   0  0  0  0  0  0  0  0  0  0  0  0
   -3.2560   12.2560   17.7650 H   0  0  0  0  0  0  0  0  0  0  0  0
   -1.4120   12.4170   21.4890 H   0  0  0  0  0  0  0  0  0  0  0  0
    4.7340    5.6130   18.7360 C   0  0  0  0  0  0  0  0  0  0  0  0
    5.2910    6.3430   17.7920 N   0  0  0  0  0  0  0  0  0  0  0  0
    6.6130    6.3140   18.1500 C   0  0  0  0  0  0  0  0  0  0  0  0
    6.8950    5.5670   19.2250 N   0  0  0  0  0  0  0  0  0  0  0  0
    5.6400    5.0990   19.6220 O   0  0  0  0  0  0  0  0  0  0  0  0
    7.6550    7.0390   17.4000 C   0  0  0  0  0  0  0  0  0  0  0  0
    7.3270    7.2450   16.3760 H   0  0  0  0  0  0  0  0  0  0  0  0
    7.8770    7.9960   17.8840 H   0  0  0  0  0  0  0  0  0  0  0  0
    8.5770    6.4540   17.3480 H   0  0  0  0  0  0  0  0  0  0  0  0
    0.7860    3.7000   19.4250 O   0  0  0  0  0  0  0  0  0  0  0  0
    0.8770    2.4170   18.8170 C   0  0  0  0  0  0  0  0  0  0  0  0
    1.9080    2.0530   18.8200 H   0  0  0  0  0  0  0  0  0  0  0  0
    0.5440    2.5070   17.7790 H   0  0  0  0  0  0  0  0  0  0  0  0
    0.2250    1.7060   19.3300 H   0  0  0  0  0  0  0  0  0  0  0  0
  1  7  1  0  0  0  0
  1  8  1  1  0  0  0
  2  1  1  0  0  0  0
  2  9  1  0  0  0  0
  3 11  1  6  0  0  0
  3  2  1  0  0  0  0
  3  4  1  0  0  0  0
  4  7  1  0  0  0  0
  5  4  1  0  0  0  0
  5 14  1  0  0  0  0
  6  5  2  0  0  0  0
  7 13  1  0  0  0  0
  7 12  1  0  0  0  0
 10  2  1  0  0  0  0
 14 15  1  0  0  0  0
 15 20  1  0  0  0  0
 15 16  2  0  0  0  0
 16 21  1  0  0  0  0
 17 16  1  0  0  0  0
 17 22  1  0  0  0  0
 18 17  2  0  0  0  0
 19 14  2  0  0  0  0
 19 18  1  0  0  0  0
 23 19  1  0  0  0  0
 24 18  1  0  0  0  0
 24 28  1  0  0  0  0
 25 24  1  0  0  0  0
 26 25  2  0  0  0  0
 26 27  1  0  0  0  0
 27 28  2  0  0  0  0
 28 31  1  0  0  0  0
 29 25  1  0  0  0  0
 30 26  1  0  0  0  0
 32  3  1  0  0  0  0
 32 36  1  0  0  0  0
 33 34  1  0  0  0  0
 33 32  2  0  0  0  0
 34 35  2  0  0  0  0
 35 36  1  0  0  0  0
 37 39  1  0  0  0  0
 37 34  1  0  0  0  0
 38 37  1  0  0  0  0
 40 37  1  0  0  0  0
 41  1  1  0  0  0  0
 42 43  1  0  0  0  0
 42 45  1  0  0  0  0
 42 41  1  0  0  0  0
 44 42  1  0  0  0  0
M  END
>  <MODEL>
2

>  <REMARK>
 VINA RESULT:    -7.303      1.310      1.432
 INTER + INTRA:          -9.224
 INTER:                  -9.191
 INTRA:                  -0.033
 UNBOUND:                 0.214
  Name = 
  6 active torsions:
  status: ('A' for Active; 'I' for Inactive)
    1  A    between atoms: C_1  and  O_2
    2  A    between atoms: O_2  and  C_3
    3  A    between atoms: C_5  and  C_6
    4  A    between atoms: C_8  and  C_9
    5  A    between atoms: C_13  and  C_15
    6  A    between atoms: C_19  and  N_20
                            x       y       z     vdW  Elec       q    Type
                         _______ _______ _______ _____ _____    ______ ____

>  <TORSDO>
F 6

$$$$
=
 OpenBabel07192307433D

 45 48  0  0  1  0  0  0  0  0999 V2000
    1.7850    4.3870   20.6560 C   0  0  1  0  0  0  0  0  0  0  0  0
    3.1320    3.8310   20.2060 C   0  0  0  0  0  0  0  0  0  0  0  0
    3.4780    4.6970   18.9880 C   0  0  1  0  0  0  0  0  0  0  0  0
    2.8610    5.9930   19.2740 N   0  0  0  0  0  0  0  0  0  0  0  0
    2.7870    6.9530   18.2790 C   0  0  0  0  0  0  0  0  0  0  0  0
    3.2290    6.7860   17.1470 O   0  0  0  0  0  0  0  0  0  0  0  0
    1.9510    5.8930   20.4130 C   0  0  0  0  0  0  0  0  0  0  0  0
    1.5620    4.1840   21.7090 H   0  0  0  0  0  0  0  0  0  0  0  0
    3.8670    3.9670   21.0110 H   0  0  0  0  0  0  0  0  0  0  0  0
    3.1130    2.7690   19.9410 H   0  0  0  0  0  0  0  0  0  0  0  0
    3.0160    4.2900   18.0800 H   0  0  0  0  0  0  0  0  0  0  0  0
    2.4490    6.3670   21.2650 H   0  0  0  0  0  0  0  0  0  0  0  0
    1.0000    6.3900   20.2030 H   0  0  0  0  0  0  0  0  0  0  0  0
    2.1530    8.2520   18.6050 C   0  0  0  0  0  0  0  0  0  0  0  0
    2.2320    9.2890   17.6750 C   0  0  0  0  0  0  0  0  0  0  0  0
    1.6520   10.5200   17.9700 C   0  0  0  0  0  0  0  0  0  0  0  0
    1.0080   10.7210   19.1960 C   0  0  0  0  0  0  0  0  0  0  0  0
    0.9490    9.6910   20.1490 C   0  0  0  0  0  0  0  0  0  0  0  0
    1.5340    8.4520   19.8470 C   0  0  0  0  0  0  0  0  0  0  0  0
    2.7440    9.1380   16.7270 H   0  0  0  0  0  0  0  0  0  0  0  0
    1.7080   11.3310   17.2470 H   0  0  0  0  0  0  0  0  0  0  0  0
    0.5790   11.7030   19.3740 H   0  0  0  0  0  0  0  0  0  0  0  0
    1.5440    7.6310   20.5570 H   0  0  0  0  0  0  0  0  0  0  0  0
    0.3080    9.8990   21.4070 N   0  0  0  0  0  0  0  0  0  0  0  0
   -0.6530   10.8400   21.7130 C   0  0  0  0  0  0  0  0  0  0  0  0
   -0.9560   10.6630   23.0430 C   0  0  0  0  0  0  0  0  0  0  0  0
   -0.2160    9.6510   23.5760 N   0  0  0  0  0  0  0  0  0  0  0  0
    0.5230    9.2090   22.5830 C   0  0  0  0  0  0  0  0  0  0  0  0
   -1.0510   11.5410   20.9970 H   0  0  0  0  0  0  0  0  0  0  0  0
   -1.6700   11.2160   23.6400 H   0  0  0  0  0  0  0  0  0  0  0  0
    1.2270    8.3940   22.6730 H   0  0  0  0  0  0  0  0  0  0  0  0
    4.9580    4.7880   18.8120 C   0  0  0  0  0  0  0  0  0  0  0  0
    5.8420    5.4770   19.5020 N   0  0  0  0  0  0  0  0  0  0  0  0
    7.0070    5.1920   18.8410 C   0  0  0  0  0  0  0  0  0  0  0  0
    6.8720    4.4130   17.7610 N   0  0  0  0  0  0  0  0  0  0  0  0
    5.5030    4.1370   17.7390 O   0  0  0  0  0  0  0  0  0  0  0  0
    8.3150    5.7160   19.2750 C   0  0  0  0  0  0  0  0  0  0  0  0
    8.4410    6.7580   18.9660 H   0  0  0  0  0  0  0  0  0  0  0  0
    8.4000    5.6720   20.3660 H   0  0  0  0  0  0  0  0  0  0  0  0
    9.1330    5.1330   18.8400 H   0  0  0  0  0  0  0  0  0  0  0  0
    0.7260    3.8990   19.8270 O   0  0  0  0  0  0  0  0  0  0  0  0
    0.8330    2.5080   19.5480 C   0  0  0  0  0  0  0  0  0  0  0  0
    1.7560    2.2850   19.0060 H   0  0  0  0  0  0  0  0  0  0  0  0
   -0.0150    2.2200   18.9200 H   0  0  0  0  0  0  0  0  0  0  0  0
    0.7910    1.9290   20.4740 H   0  0  0  0  0  0  0  0  0  0  0  0
  1  8  1  1  0  0  0
  2  1  1  0  0  0  0
  2  9  1  0  0  0  0
  3 11  1  6  0  0  0
  3  4  1  0  0  0  0
  3  2  1  0  0  0  0
  4  7  1  0  0  0  0
  5 14  1  0  0  0  0
  5  4  1  0  0  0  0
  6  5  2  0  0  0  0
  7  1  1  0  0  0  0
  7 12  1  0  0  0  0
 10  2  1  0  0  0  0
 13  7  1  0  0  0  0
 14 19  1  0  0  0  0
 15 16  1  0  0  0  0
 15 14  2  0  0  0  0
 16 17  2  0  0  0  0
 17 22  1  0  0  0  0
 17 18  1  0  0  0  0
 18 24  1  0  0  0  0
 19 18  2  0  0  0  0
 19 23  1  0  0  0  0
 20 15  1  0  0  0  0
 21 16  1  0  0  0  0
 24 25  1  0  0  0  0
 24 28  1  0  0  0  0
 25 26  2  0  0  0  0
 26 27  1  0  0  0  0
 26 30  1  0  0  0  0
 28 31  1  0  0  0  0
 28 27  2  0  0  0  0
 29 25  1  0  0  0  0
 32  3  1  0  0  0  0
 32 33  2  0  0  0  0
 34 37  1  0  0  0  0
 34 33  1  0  0  0  0
 35 34  2  0  0  0  0
 36 35  1  0  0  0  0
 36 32  1  0  0  0  0
 37 39  1  0  0  0  0
 38 37  1  0  0  0  0
 40 37  1  0  0  0  0
 41  1  1  0  0  0  0
 42 41  1  0  0  0  0
 42 45  1  0  0  0  0
 43 42  1  0  0  0  0
 44 42  1  0  0  0  0
M  END
>  <MODEL>
3

>  <REMARK>
 VINA RESULT:    -7.201      1.466      2.458
 INTER + INTRA:          -9.093
 INTER:                  -9.317
 INTRA:                   0.224
 UNBOUND:                 0.214
  Name = 
  6 active torsions:
  status: ('A' for Active; 'I' for Inactive)
    1  A    between atoms: C_1  and  O_2
    2  A    between atoms: O_2  and  C_3
    3  A    between atoms: C_5  and  C_6
    4  A    between atoms: C_8  and  C_9
    5  A    between atoms: C_13  and  C_15
    6  A    between atoms: C_19  and  N_20
                            x       y       z     vdW  Elec       q    Type
                         _______ _______ _______ _____ _____    ______ ____

>  <TORSDO>
F 6

$$$$
=
 OpenBabel07192307433D

 45 48  0  0  1  0  0  0  0  0999 V2000
   -1.3680   10.4480   17.5960 C   0  0  1  0  0  0  0  0  0  0  0  0
   -1.1470   11.7170   18.4120 C   0  0  0  0  0  0  0  0  0  0  0  0
   -0.3280   11.2230   19.6110 C   0  0  1  0  0  0  0  0  0  0  0  0
    0.4520   10.1020   19.0840 N   0  0  0  0  0  0  0  0  0  0  0  0
    1.1430    9.2750   19.9540 C   0  0  0  0  0  0  0  0  0  0  0  0
    1.1530    9.4340   21.1700 O   0  0  0  0  0  0  0  0  0  0  0  0
   -0.0330    9.7110   17.7610 C   0  0  0  0  0  0  0  0  0  0  0  0
   -1.5790   10.6430   16.5390 H   0  0  0  0  0  0  0  0  0  0  0  0
   -0.5770   12.4380   17.8120 H   0  0  0  0  0  0  0  0  0  0  0  0
   -2.0700   12.2050   18.7410 H   0  0  0  0  0  0  0  0  0  0  0  0
   -0.9870   10.8400   20.3990 H   0  0  0  0  0  0  0  0  0  0  0  0
    0.6980   10.0710   17.0310 H   0  0  0  0  0  0  0  0  0  0  0  0
   -0.1420    8.6250   17.6860 H   0  0  0  0  0  0  0  0  0  0  0  0
    1.9190    8.1490   19.3830 C   0  0  0  0  0  0  0  0  0  0  0  0
    2.5700    8.3350   18.1620 C   0  0  0  0  0  0  0  0  0  0  0  0
    3.2940    7.2850   17.6050 C   0  0  0  0  0  0  0  0  0  0  0  0
    3.3560    6.0480   18.2560 C   0  0  0  0  0  0  0  0  0  0  0  0
    2.6810    5.8440   19.4700 C   0  0  0  0  0  0  0  0  0  0  0  0
    1.9530    6.9060   20.0280 C   0  0  0  0  0  0  0  0  0  0  0  0
    2.5110    9.2930   17.6490 H   0  0  0  0  0  0  0  0  0  0  0  0
    3.8060    7.4250   16.6560 H   0  0  0  0  0  0  0  0  0  0  0  0
    3.9320    5.2630   17.7720 H   0  0  0  0  0  0  0  0  0  0  0  0
    1.3880    6.7960   20.9480 H   0  0  0  0  0  0  0  0  0  0  0  0
    2.7280    4.5780   20.1270 N   0  0  0  0  0  0  0  0  0  0  0  0
    1.9630    4.1570   21.1930 C   0  0  0  0  0  0  0  0  0  0  0  0
    2.3730    2.8760   21.4810 C   0  0  0  0  0  0  0  0  0  0  0  0
    3.3690    2.4870   20.6360 N   0  0  0  0  0  0  0  0  0  0  0  0
    3.5580    3.5130   19.8360 C   0  0  0  0  0  0  0  0  0  0  0  0
    1.2000    4.7630   21.6570 H   0  0  0  0  0  0  0  0  0  0  0  0
    1.9990    2.2170   22.2550 H   0  0  0  0  0  0  0  0  0  0  0  0
    4.2860    3.5280   19.0380 H   0  0  0  0  0  0  0  0  0  0  0  0
    0.5300   12.3200   20.1490 C   0  0  0  0  0  0  0  0  0  0  0  0
    1.7340   12.7000   19.7770 N   0  0  0  0  0  0  0  0  0  0  0  0
    2.0020   13.7100   20.6630 C   0  0  0  0  0  0  0  0  0  0  0  0
    1.0530   13.9260   21.5820 N   0  0  0  0  0  0  0  0  0  0  0  0
    0.0640   13.0010   21.2400 O   0  0  0  0  0  0  0  0  0  0  0  0
    3.2510   14.4920   20.6210 C   0  0  0  0  0  0  0  0  0  0  0  0
    3.2080   15.3350   21.3180 H   0  0  0  0  0  0  0  0  0  0  0  0
    4.1040   13.8640   20.8990 H   0  0  0  0  0  0  0  0  0  0  0  0
    3.4270   14.8920   19.6180 H   0  0  0  0  0  0  0  0  0  0  0  0
   -2.4110    9.6490   18.1630 O   0  0  0  0  0  0  0  0  0  0  0  0
   -3.7020    9.9880   17.6730 C   0  0  0  0  0  0  0  0  0  0  0  0
   -4.3430    9.1040   17.6060 H   0  0  0  0  0  0  0  0  0  0  0  0
   -3.5870   10.4080   16.6700 H   0  0  0  0  0  0  0  0  0  0  0  0
   -4.1680   10.7410   18.3140 H   0  0  0  0  0  0  0  0  0  0  0  0
  1  8  1  6  0  0  0
  1  7  1  0  0  0  0
  1 41  1  0  0  0  0
  1  2  1  0  0  0  0
  2 10  1  0  0  0  0
  2  3  1  0  0  0  0
  3 32  1  0  0  0  0
  3 11  1  1  0  0  0
  4  3  1  0  0  0  0
  4  5  1  0  0  0  0
  5  6  2  0  0  0  0
  7  4  1  0  0  0  0
  9  2  1  0  0  0  0
 12  7  1  0  0  0  0
 13  7  1  0  0  0  0
 14  5  1  0  0  0  0
 14 19  1  0  0  0  0
 15 14  2  0  0  0  0
 16 15  1  0  0  0  0
 16 17  2  0  0  0  0
 17 18  1  0  0  0  0
 18 19  2  0  0  0  0
 18 24  1  0  0  0  0
 19 23  1  0  0  0  0
 20 15  1  0  0  0  0
 21 16  1  0  0  0  0
 22 17  1  0  0  0  0
 24 25  1  0  0  0  0
 25 26  2  0  0  0  0
 25 29  1  0  0  0  0
 26 30  1  0  0  0  0
 27 26  1  0  0  0  0
 28 24  1  0  0  0  0
 28 27  2  0  0  0  0
 31 28  1  0  0  0  0
 32 36  1  0  0  0  0
 33 32  2  0  0  0  0
 33 34  1  0  0  0  0
 34 35  2  0  0  0  0
 36 35  1  0  0  0  0
 37 34  1  0  0  0  0
 37 39  1  0  0  0  0
 37 38  1  0  0  0  0
 40 37  1  0  0  0  0
 42 41  1  0  0  0  0
 42 45  1  0  0  0  0
 43 42  1  0  0  0  0
 44 42  1  0  0  0  0
M  END
>  <MODEL>
4

>  <REMARK>
 VINA RESULT:    -6.853      2.976      7.808
 INTER + INTRA:          -8.642
 INTER:                  -8.430
 INTRA:                  -0.213
 UNBOUND:                 0.214
  Name = 
  6 active torsions:
  status: ('A' for Active; 'I' for Inactive)
    1  A    between atoms: C_1  and  O_2
    2  A    between atoms: O_2  and  C_3
    3  A    between atoms: C_5  and  C_6
    4  A    between atoms: C_8  and  C_9
    5  A    between atoms: C_13  and  C_15
    6  A    between atoms: C_19  and  N_20
                            x       y       z     vdW  Elec       q    Type
                         _______ _______ _______ _____ _____    ______ ____

>  <TORSDO>
F 6

$$$$
=
 OpenBabel07192307433D

 45 48  0  0  1  0  0  0  0  0999 V2000
    5.2390    6.6260   16.6040 C   0  0  1  0  0  0  0  0  0  0  0  0
    5.0640    5.1450   16.9230 C   0  0  0  0  0  0  0  0  0  0  0  0
    4.2790    5.1620   18.2410 C   0  0  1  0  0  0  0  0  0  0  0  0
    3.4650    6.3770   18.1660 N   0  0  0  0  0  0  0  0  0  0  0  0
    2.7930    6.8250   19.2910 C   0  0  0  0  0  0  0  0  0  0  0  0
    2.8280    6.2460   20.3720 O   0  0  0  0  0  0  0  0  0  0  0  0
    3.8990    7.2220   17.0560 C   0  0  0  0  0  0  0  0  0  0  0  0
    5.4150    6.8220   15.5410 H   0  0  0  0  0  0  0  0  0  0  0  0
    4.4840    4.6680   16.1230 H   0  0  0  0  0  0  0  0  0  0  0  0
    6.0040    4.5960   17.0330 H   0  0  0  0  0  0  0  0  0  0  0  0
    4.9600    5.2590   19.0960 H   0  0  0  0  0  0  0  0  0  0  0  0
    3.1490    7.1240   16.2650 H   0  0  0  0  0  0  0  0  0  0  0  0
    3.9900    8.2670   17.3660 H   0  0  0  0  0  0  0  0  0  0  0  0
    1.9820    8.0590   19.1770 C   0  0  0  0  0  0  0  0  0  0  0  0
    1.9530    8.7310   17.9540 C   0  0  0  0  0  0  0  0  0  0  0  0
    1.2040    9.8990   17.8310 C   0  0  0  0  0  0  0  0  0  0  0  0
    0.5000   10.4030   18.9300 C   0  0  0  0  0  0  0  0  0  0  0  0
    0.5470    9.7480   20.1720 C   0  0  0  0  0  0  0  0  0  0  0  0
    1.3010    8.5720   20.2900 C   0  0  0  0  0  0  0  0  0  0  0  0
    2.5110    8.3470   17.1030 H   0  0  0  0  0  0  0  0  0  0  0  0
    1.1760   10.4250   16.8800 H   0  0  0  0  0  0  0  0  0  0  0  0
   -0.0620   11.3210   18.7770 H   0  0  0  0  0  0  0  0  0  0  0  0
    1.3970    8.0410   21.2310 H   0  0  0  0  0  0  0  0  0  0  0  0
   -0.1570   10.2710   21.2980 N   0  0  0  0  0  0  0  0  0  0  0  0
   -0.7810   11.4970   21.4010 C   0  0  0  0  0  0  0  0  0  0  0  0
   -1.3090   11.5550   22.6690 C   0  0  0  0  0  0  0  0  0  0  0  0
   -1.0330   10.4120   23.3600 N   0  0  0  0  0  0  0  0  0  0  0  0
   -0.3530    9.6630   22.5210 C   0  0  0  0  0  0  0  0  0  0  0  0
   -0.8170   12.2180   20.6000 H   0  0  0  0  0  0  0  0  0  0  0  0
   -1.8730   12.3630   23.1170 H   0  0  0  0  0  0  0  0  0  0  0  0
    0.0180    8.6770   22.7600 H   0  0  0  0  0  0  0  0  0  0  0  0
    3.4570    3.9240   18.3790 C   0  0  0  0  0  0  0  0  0  0  0  0
    2.1480    3.7810   18.3510 N   0  0  0  0  0  0  0  0  0  0  0  0
    2.0030    2.4370   18.5740 C   0  0  0  0  0  0  0  0  0  0  0  0
    3.1430    1.7690   18.7880 N   0  0  0  0  0  0  0  0  0  0  0  0
    4.1190    2.7590   18.6540 O   0  0  0  0  0  0  0  0  0  0  0  0
    0.6860    1.7740   18.5950 C   0  0  0  0  0  0  0  0  0  0  0  0
    0.0320    2.2270   19.3470 H   0  0  0  0  0  0  0  0  0  0  0  0
    0.1970    1.8670   17.6200 H   0  0  0  0  0  0  0  0  0  0  0  0
    0.7880    0.7110   18.8320 H   0  0  0  0  0  0  0  0  0  0  0  0
    6.2880    7.1990   17.3890 O   0  0  0  0  0  0  0  0  0  0  0  0
    7.4820    6.4260   17.3750 C   0  0  0  0  0  0  0  0  0  0  0  0
    7.5100    5.7620   16.5060 H   0  0  0  0  0  0  0  0  0  0  0  0
    7.5010    5.8120   18.2800 H   0  0  0  0  0  0  0  0  0  0  0  0
    8.3590    7.0780   17.3780 H   0  0  0  0  0  0  0  0  0  0  0  0
  1  8  1  6  0  0  0
  1  2  1  0  0  0  0
  1  7  1  0  0  0  0
  1 41  1  0  0  0  0
  2 10  1  0  0  0  0
  2  3  1  0  0  0  0
  3 32  1  0  0  0  0
  3 11  1  1  0  0  0
  4  3  1  0  0  0  0
  4  5  1  0  0  0  0
  5  6  2  0  0  0  0
  7 13  1  0  0  0  0
  7  4  1  0  0  0  0
  9  2  1  0  0  0  0
 12  7  1  0  0  0  0
 14  5  1  0  0  0  0
 14 19  1  0  0  0  0
 15 14  2  0  0  0  0
 16 15  1  0  0  0  0
 16 17  2  0  0  0  0
 17 18  1  0  0  0  0
 18 19  2  0  0  0  0
 18 24  1  0  0  0  0
 19 23  1  0  0  0  0
 20 15  1  0  0  0  0
 21 16  1  0  0  0  0
 22 17  1  0  0  0  0
 24 25  1  0  0  0  0
 24 28  1  0  0  0  0
 25 26  2  0  0  0  0
 26 30  1  0  0  0  0
 26 27  1  0  0  0  0
 28 31  1  0  0  0  0
 28 27  2  0  0  0  0
 29 25  1  0  0  0  0
 32 36  1  0  0  0  0
 33 32  2  0  0  0  0
 33 34  1  0  0  0  0
 34 37  1  0  0  0  0
 34 35  2  0  0  0  0
 36 35  1  0  0  0  0
 37 40  1  0  0  0  0
 37 38  1  0  0  0  0
 39 37  1  0  0  0  0
 42 45  1  0  0  0  0
 42 41  1  0  0  0  0
 42 44  1  0  0  0  0
 43 42  1  0  0  0  0
M  END
>  <MODEL>
5

>  <REMARK>
 VINA RESULT:    -6.829      2.133      4.283
 INTER + INTRA:          -8.611
 INTER:                  -9.237
 INTRA:                   0.627
 UNBOUND:                 0.214
  Name = 
  6 active torsions:
  status: ('A' for Active; 'I' for Inactive)
    1  A    between atoms: C_1  and  O_2
    2  A    between atoms: O_2  and  C_3
    3  A    between atoms: C_5  and  C_6
    4  A    between atoms: C_8  and  C_9
    5  A    between atoms: C_13  and  C_15
    6  A    between atoms: C_19  and  N_20
                            x       y       z     vdW  Elec       q    Type
                         _______ _______ _______ _____ _____    ______ ____

>  <TORSDO>
F 6

$$$$
=
 OpenBabel07192307433D

 45 48  0  0  1  0  0  0  0  0999 V2000
    2.0770    4.2680   19.8110 C   0  0  1  0  0  0  0  0  0  0  0  0
    3.5250    4.1930   19.3410 C   0  0  0  0  0  0  0  0  0  0  0  0
    3.6670    5.4330   18.4480 C   0  0  1  0  0  0  0  0  0  0  0  0
    2.7460    6.4100   19.0320 N   0  0  0  0  0  0  0  0  0  0  0  0
    2.4540    7.5760   18.3430 C   0  0  0  0  0  0  0  0  0  0  0  0
    2.9400    7.8540   17.2520 O   0  0  0  0  0  0  0  0  0  0  0  0
    1.8710    5.7740   20.0140 C   0  0  0  0  0  0  0  0  0  0  0  0
    1.8940    3.7190   20.7420 H   0  0  0  0  0  0  0  0  0  0  0  0
    4.1920    4.2540   20.2110 H   0  0  0  0  0  0  0  0  0  0  0  0
    3.7710    3.2810   18.7890 H   0  0  0  0  0  0  0  0  0  0  0  0
    3.3320    5.2150   17.4270 H   0  0  0  0  0  0  0  0  0  0  0  0
    2.2240    6.0800   21.0050 H   0  0  0  0  0  0  0  0  0  0  0  0
    0.8310    6.0780   19.8720 H   0  0  0  0  0  0  0  0  0  0  0  0
    1.5160    8.5390   18.9640 C   0  0  0  0  0  0  0  0  0  0  0  0
    1.7130    8.9020   20.2970 C   0  0  0  0  0  0  0  0  0  0  0  0
    0.8340    9.7980   20.9010 C   0  0  0  0  0  0  0  0  0  0  0  0
   -0.2470   10.3190   20.1810 C   0  0  0  0  0  0  0  0  0  0  0  0
   -0.4680    9.9370   18.8470 C   0  0  0  0  0  0  0  0  0  0  0  0
    0.4200    9.0350   18.2430 C   0  0  0  0  0  0  0  0  0  0  0  0
    2.5450    8.4870   20.8620 H   0  0  0  0  0  0  0  0  0  0  0  0
    0.9840   10.0850   21.9390 H   0  0  0  0  0  0  0  0  0  0  0  0
   -0.9030   11.0090   20.7050 H   0  0  0  0  0  0  0  0  0  0  0  0
    0.2810    8.6830   17.2260 H   0  0  0  0  0  0  0  0  0  0  0  0
   -1.5800   10.4540   18.1170 N   0  0  0  0  0  0  0  0  0  0  0  0
   -2.4720   11.4240   18.5230 C   0  0  0  0  0  0  0  0  0  0  0  0
   -3.3690   11.5790   17.4930 C   0  0  0  0  0  0  0  0  0  0  0  0
   -3.0720   10.7360   16.4630 N   0  0  0  0  0  0  0  0  0  0  0  0
   -2.0010   10.0830   16.8560 C   0  0  0  0  0  0  0  0  0  0  0  0
   -2.4110   11.9310   19.4740 H   0  0  0  0  0  0  0  0  0  0  0  0
   -4.2140   12.2550   17.4440 H   0  0  0  0  0  0  0  0  0  0  0  0
   -1.5030    9.3330   16.2600 H   0  0  0  0  0  0  0  0  0  0  0  0
    5.0820    5.9100   18.4330 C   0  0  0  0  0  0  0  0  0  0  0  0
    5.6700    6.7580   17.6160 N   0  0  0  0  0  0  0  0  0  0  0  0
    6.9610    6.7510   18.0760 C   0  0  0  0  0  0  0  0  0  0  0  0
    7.1980    5.9090   19.0900 N   0  0  0  0  0  0  0  0  0  0  0  0
    5.9430    5.3470   19.3340 O   0  0  0  0  0  0  0  0  0  0  0  0
    8.0170    7.5970   17.4900 C   0  0  0  0  0  0  0  0  0  0  0  0
    8.7100    7.9470   18.2620 H   0  0  0  0  0  0  0  0  0  0  0  0
    8.5910    7.0310   16.7500 H   0  0  0  0  0  0  0  0  0  0  0  0
    7.5860    8.4740   16.9990 H   0  0  0  0  0  0  0  0  0  0  0  0
    1.1830    3.8130   18.7910 O   0  0  0  0  0  0  0  0  0  0  0  0
    0.9390    2.4130   18.8470 C   0  0  0  0  0  0  0  0  0  0  0  0
    0.3420    2.0830   17.9920 H   0  0  0  0  0  0  0  0  0  0  0  0
    0.3790    2.2000   19.7620 H   0  0  0  0  0  0  0  0  0  0  0  0
    1.8830    1.8620   18.8820 H   0  0  0  0  0  0  0  0  0  0  0  0
  1  7  1  0  0  0  0
  1  8  1  1  0  0  0
  2  1  1  0  0  0  0
  2  9  1  0  0  0  0
  3 11  1  6  0  0  0
  3  4  1  0  0  0  0
  3  2  1  0  0  0  0
  4  7  1  0  0  0  0
  5 14  1  0  0  0  0
  5  4  1  0  0  0  0
  6  5  2  0  0  0  0
  7 12  1  0  0  0  0
 10  2  1  0  0  0  0
 13  7  1  0  0  0  0
 14 15  1  0  0  0  0
 15 20  1  0  0  0  0
 15 16  2  0  0  0  0
 16 21  1  0  0  0  0
 17 22  1  0  0  0  0
 17 16  1  0  0  0  0
 18 17  2  0  0  0  0
 19 18  1  0  0  0  0
 19 14  2  0  0  0  0
 23 19  1  0  0  0  0
 24 25  1  0  0  0  0
 24 18  1  0  0  0  0
 25 29  1  0  0  0  0
 26 25  2  0  0  0  0
 27 28  2  0  0  0  0
 27 26  1  0  0  0  0
 28 24  1  0  0  0  0
 30 26  1  0  0  0  0
 31 28  1  0  0  0  0
 32  3  1  0  0  0  0
 32 36  1  0  0  0  0
 33 34  1  0  0  0  0
 33 32  2  0  0  0  0
 34 35  2  0  0  0  0
 35 36  1  0  0  0  0
 37 34  1  0  0  0  0
 37 38  1  0  0  0  0
 39 37  1  0  0  0  0
 40 37  1  0  0  0  0
 41 42  1  0  0  0  0
 41  1  1  0  0  0  0
 42 45  1  0  0  0  0
 42 44  1  0  0  0  0
 43 42  1  0  0  0  0
M  END
>  <MODEL>
6

>  <REMARK>
 VINA RESULT:    -6.719      1.544      1.810
 INTER + INTRA:          -8.469
 INTER:                  -8.364
 INTRA:                  -0.105
 UNBOUND:                 0.214
  Name = 
  6 active torsions:
  status: ('A' for Active; 'I' for Inactive)
    1  A    between atoms: C_1  and  O_2
    2  A    between atoms: O_2  and  C_3
    3  A    between atoms: C_5  and  C_6
    4  A    between atoms: C_8  and  C_9
    5  A    between atoms: C_13  and  C_15
    6  A    between atoms: C_19  and  N_20
                            x       y       z     vdW  Elec       q    Type
                         _______ _______ _______ _____ _____    ______ ____

>  <TORSDO>
F 6

$$$$
=
 OpenBabel07192307433D

 45 48  0  0  1  0  0  0  0  0999 V2000
   -1.0690   10.4950   17.7510 C   0  0  1  0  0  0  0  0  0  0  0  0
   -0.5250   11.8200   18.2730 C   0  0  0  0  0  0  0  0  0  0  0  0
    0.1750   11.4210   19.5780 C   0  0  1  0  0  0  0  0  0  0  0  0
    0.6440   10.0550   19.3380 N   0  0  0  0  0  0  0  0  0  0  0  0
    1.1300    9.3000   20.3920 C   0  0  0  0  0  0  0  0  0  0  0  0
    1.2070    9.7190   21.5420 O   0  0  0  0  0  0  0  0  0  0  0  0
    0.0480    9.5100   18.1200 C   0  0  0  0  0  0  0  0  0  0  0  0
   -1.2490   10.4950   16.6700 H   0  0  0  0  0  0  0  0  0  0  0  0
    0.1910   12.2280   17.5480 H   0  0  0  0  0  0  0  0  0  0  0  0
   -1.2920   12.5790   18.4550 H   0  0  0  0  0  0  0  0  0  0  0  0
   -0.5400   11.3960   20.4090 H   0  0  0  0  0  0  0  0  0  0  0  0
    0.8280    9.5100   17.3520 H   0  0  0  0  0  0  0  0  0  0  0  0
   -0.3260    8.4960   18.2830 H   0  0  0  0  0  0  0  0  0  0  0  0
    1.5930    7.9210   20.1100 C   0  0  0  0  0  0  0  0  0  0  0  0
    1.1800    6.8890   20.9530 C   0  0  0  0  0  0  0  0  0  0  0  0
    1.6140    5.5890   20.7090 C   0  0  0  0  0  0  0  0  0  0  0  0
    2.4720    5.3210   19.6370 C   0  0  0  0  0  0  0  0  0  0  0  0
    2.9150    6.3590   18.8000 C   0  0  0  0  0  0  0  0  0  0  0  0
    2.4740    7.6670   19.0490 C   0  0  0  0  0  0  0  0  0  0  0  0
    0.5240    7.0990   21.7950 H   0  0  0  0  0  0  0  0  0  0  0  0
    1.2930    4.7810   21.3620 H   0  0  0  0  0  0  0  0  0  0  0  0
    2.7830    4.2890   19.4990 H   0  0  0  0  0  0  0  0  0  0  0  0
    2.8080    8.5110   18.4530 H   0  0  0  0  0  0  0  0  0  0  0  0
    3.8040    6.0900   17.7160 N   0  0  0  0  0  0  0  0  0  0  0  0
    4.5290    7.0040   16.9800 C   0  0  0  0  0  0  0  0  0  0  0  0
    5.2270    6.2780   16.0440 C   0  0  0  0  0  0  0  0  0  0  0  0
    4.9600    4.9470   16.1670 N   0  0  0  0  0  0  0  0  0  0  0  0
    4.1160    4.8610   17.1720 C   0  0  0  0  0  0  0  0  0  0  0  0
    4.5130    8.0670   17.1640 H   0  0  0  0  0  0  0  0  0  0  0  0
    5.9090    6.6500   15.2890 H   0  0  0  0  0  0  0  0  0  0  0  0
    3.7050    3.9300   17.5340 H   0  0  0  0  0  0  0  0  0  0  0  0
    1.2870   12.3670   19.8880 C   0  0  0  0  0  0  0  0  0  0  0  0
    1.5450   13.0210   21.0010 N   0  0  0  0  0  0  0  0  0  0  0  0
    2.6520   13.7510   20.6560 C   0  0  0  0  0  0  0  0  0  0  0  0
    3.0460   13.6170   19.3840 N   0  0  0  0  0  0  0  0  0  0  0  0
    2.1390   12.6900   18.8670 O   0  0  0  0  0  0  0  0  0  0  0  0
    3.3500   14.6320   21.6090 C   0  0  0  0  0  0  0  0  0  0  0  0
    3.7290   14.0620   22.4630 H   0  0  0  0  0  0  0  0  0  0  0  0
    4.2000   15.1220   21.1230 H   0  0  0  0  0  0  0  0  0  0  0  0
    2.6760   15.4050   21.9910 H   0  0  0  0  0  0  0  0  0  0  0  0
   -2.2630   10.1220   18.4460 O   0  0  0  0  0  0  0  0  0  0  0  0
   -3.2880    9.6520   17.5800 C   0  0  0  0  0  0  0  0  0  0  0  0
   -3.7300   10.4740   17.0100 H   0  0  0  0  0  0  0  0  0  0  0  0
   -4.0710    9.1960   18.1930 H   0  0  0  0  0  0  0  0  0  0  0  0
   -2.8950    8.8920   16.8990 H   0  0  0  0  0  0  0  0  0  0  0  0
  1  8  1  6  0  0  0
  1  7  1  0  0  0  0
  1  2  1  0  0  0  0
  1 41  1  0  0  0  0
  2 10  1  0  0  0  0
  2  3  1  0  0  0  0
  3 32  1  0  0  0  0
  3 11  1  1  0  0  0
  4  3  1  0  0  0  0
  4  5  1  0  0  0  0
  5  6  2  0  0  0  0
  7 13  1  0  0  0  0
  7  4  1  0  0  0  0
  9  2  1  0  0  0  0
 12  7  1  0  0  0  0
 14  5  1  0  0  0  0
 14 15  1  0  0  0  0
 15 20  1  0  0  0  0
 16 15  2  0  0  0  0
 16 21  1  0  0  0  0
 17 16  1  0  0  0  0
 18 19  1  0  0  0  0
 18 17  2  0  0  0  0
 19 14  2  0  0  0  0
 22 17  1  0  0  0  0
 23 19  1  0  0  0  0
 24 18  1  0  0  0  0
 25 29  1  0  0  0  0
 25 24  1  0  0  0  0
 26 27  1  0  0  0  0
 26 25  2  0  0  0  0
 27 28  2  0  0  0  0
 28 31  1  0  0  0  0
 28 24  1  0  0  0  0
 30 26  1  0  0  0  0
 32 33  2  0  0  0  0
 34 33  1  0  0  0  0
 34 37  1  0  0  0  0
 35 34  2  0  0  0  0
 36 35  1  0  0  0  0
 36 32  1  0  0  0  0
 37 40  1  0  0  0  0
 37 38  1  0  0  0  0
 39 37  1  0  0  0  0
 42 44  1  0  0  0  0
 42 41  1  0  0  0  0
 43 42  1  0  0  0  0
 45 42  1  0  0  0  0
M  END
>  <MODEL>
7

>  <REMARK>
 VINA RESULT:    -6.566      2.944      7.221
 INTER + INTRA:          -8.271
 INTER:                  -7.713
 INTRA:                  -0.558
 UNBOUND:                 0.214
  Name = 
  6 active torsions:
  status: ('A' for Active; 'I' for Inactive)
    1  A    between atoms: C_1  and  O_2
    2  A    between atoms: O_2  and  C_3
    3  A    between atoms: C_5  and  C_6
    4  A    between atoms: C_8  and  C_9
    5  A    between atoms: C_13  and  C_15
    6  A    between atoms: C_19  and  N_20
                            x       y       z     vdW  Elec       q    Type
                         _______ _______ _______ _____ _____    ______ ____

>  <TORSDO>
F 6

$$$$
=
 OpenBabel07192307433D

 45 48  0  0  1  0  0  0  0  0999 V2000
    3.2320    2.8420   20.5630 C   0  0  1  0  0  0  0  0  0  0  0  0
    4.2730    2.6600   19.4640 C   0  0  0  0  0  0  0  0  0  0  0  0
    3.8800    3.7250   18.4310 C   0  0  1  0  0  0  0  0  0  0  0  0
    3.2940    4.8050   19.2260 N   0  0  0  0  0  0  0  0  0  0  0  0
    2.6260    5.8400   18.5930 C   0  0  0  0  0  0  0  0  0  0  0  0
    2.5030    5.9170   17.3750 O   0  0  0  0  0  0  0  0  0  0  0  0
    3.0500    4.3640   20.5980 C   0  0  0  0  0  0  0  0  0  0  0  0
    3.5610    2.4650   21.5380 H   0  0  0  0  0  0  0  0  0  0  0  0
    5.2720    2.8560   19.8750 H   0  0  0  0  0  0  0  0  0  0  0  0
    4.2810    1.6620   19.0150 H   0  0  0  0  0  0  0  0  0  0  0  0
    3.1080    3.3410   17.7540 H   0  0  0  0  0  0  0  0  0  0  0  0
    3.8170    4.8290   21.2260 H   0  0  0  0  0  0  0  0  0  0  0  0
    2.0520    4.6590   20.9360 H   0  0  0  0  0  0  0  0  0  0  0  0
    2.0430    6.9140   19.4310 C   0  0  0  0  0  0  0  0  0  0  0  0
    1.5310    6.5820   20.6860 C   0  0  0  0  0  0  0  0  0  0  0  0
    0.9690    7.5760   21.4820 C   0  0  0  0  0  0  0  0  0  0  0  0
    0.9060    8.8960   21.0220 C   0  0  0  0  0  0  0  0  0  0  0  0
    1.3950    9.2340   19.7490 C   0  0  0  0  0  0  0  0  0  0  0  0
    1.9600    8.2280   18.9510 C   0  0  0  0  0  0  0  0  0  0  0  0
    1.5670    5.5530   21.0380 H   0  0  0  0  0  0  0  0  0  0  0  0
    0.5700    7.3230   22.4620 H   0  0  0  0  0  0  0  0  0  0  0  0
    0.4520    9.6290   21.6840 H   0  0  0  0  0  0  0  0  0  0  0  0
    2.3260    8.4260   17.9480 H   0  0  0  0  0  0  0  0  0  0  0  0
    1.3150   10.5760   19.2710 N   0  0  0  0  0  0  0  0  0  0  0  0
    0.4010   11.5430   19.6350 C   0  0  0  0  0  0  0  0  0  0  0  0
    0.7160   12.6650   18.9060 C   0  0  0  0  0  0  0  0  0  0  0  0
    1.7880   12.4310   18.0970 N   0  0  0  0  0  0  0  0  0  0  0  0
    2.1290   11.1840   18.3370 C   0  0  0  0  0  0  0  0  0  0  0  0
   -0.3770   11.3840   20.3660 H   0  0  0  0  0  0  0  0  0  0  0  0
    0.2220   13.6290   18.9240 H   0  0  0  0  0  0  0  0  0  0  0  0
    2.9560   10.6840   17.8550 H   0  0  0  0  0  0  0  0  0  0  0  0
    5.0740    4.1650   17.6510 C   0  0  0  0  0  0  0  0  0  0  0  0
    5.2540    4.2010   16.3470 N   0  0  0  0  0  0  0  0  0  0  0  0
    6.5470    4.6470   16.2490 C   0  0  0  0  0  0  0  0  0  0  0  0
    7.1740    4.8310   17.4170 N   0  0  0  0  0  0  0  0  0  0  0  0
    6.1920    4.5130   18.3580 O   0  0  0  0  0  0  0  0  0  0  0  0
    7.2060    4.8910   14.9540 C   0  0  0  0  0  0  0  0  0  0  0  0
    7.0240    5.9140   14.6090 H   0  0  0  0  0  0  0  0  0  0  0  0
    8.2880    4.7500   15.0430 H   0  0  0  0  0  0  0  0  0  0  0  0
    6.8290    4.2060   14.1890 H   0  0  0  0  0  0  0  0  0  0  0  0
    1.9890    2.2360   20.1980 O   0  0  0  0  0  0  0  0  0  0  0  0
    0.8590    2.9180   20.7270 C   0  0  0  0  0  0  0  0  0  0  0  0
    1.1600    3.6590   21.4730 H   0  0  0  0  0  0  0  0  0  0  0  0
    0.2120    2.1820   21.2140 H   0  0  0  0  0  0  0  0  0  0  0  0
    0.2940    3.4000   19.9250 H   0  0  0  0  0  0  0  0  0  0  0  0
  1  7  1  0  0  0  0
  1  8  1  1  0  0  0
  2  9  1  0  0  0  0
  2  1  1  0  0  0  0
  3 11  1  6  0  0  0
  3  4  1  0  0  0  0
  3  2  1  0  0  0  0
  4  7  1  0  0  0  0
  5  4  1  0  0  0  0
  5 14  1  0  0  0  0
  6  5  2  0  0  0  0
  7 13  1  0  0  0  0
  7 12  1  0  0  0  0
 10  2  1  0  0  0  0
 14 15  1  0  0  0  0
 15 20  1  0  0  0  0
 15 16  2  0  0  0  0
 16 21  1  0  0  0  0
 17 16  1  0  0  0  0
 17 22  1  0  0  0  0
 18 17  2  0  0  0  0
 19 14  2  0  0  0  0
 19 18  1  0  0  0  0
 23 19  1  0  0  0  0
 24 25  1  0  0  0  0
 24 18  1  0  0  0  0
 25 29  1  0  0  0  0
 26 30  1  0  0  0  0
 26 25  2  0  0  0  0
 27 28  2  0  0  0  0
 27 26  1  0  0  0  0
 28 24  1  0  0  0  0
 31 28  1  0  0  0  0
 32 36  1  0  0  0  0
 32  3  1  0  0  0  0
 33 32  2  0  0  0  0
 34 33  1  0  0  0  0
 34 35  2  0  0  0  0
 35 36  1  0  0  0  0
 37 39  1  0  0  0  0
 37 34  1  0  0  0  0
 38 37  1  0  0  0  0
 40 37  1  0  0  0  0
 41  1  1  0  0  0  0
 41 42  1  0  0  0  0
 42 44  1  0  0  0  0
 42 43  1  0  0  0  0
 45 42  1  0  0  0  0
M  END
>  <MODEL>
8

>  <REMARK>
 VINA RESULT:    -6.465      1.578      1.884
 INTER + INTRA:          -8.141
 INTER:                  -8.284
 INTRA:                   0.144
 UNBOUND:                 0.214
  Name = 
  6 active torsions:
  status: ('A' for Active; 'I' for Inactive)
    1  A    between atoms: C_1  and  O_2
    2  A    between atoms: O_2  and  C_3
    3  A    between atoms: C_5  and  C_6
    4  A    between atoms: C_8  and  C_9
    5  A    between atoms: C_13  and  C_15
    6  A    between atoms: C_19  and  N_20
                            x       y       z     vdW  Elec       q    Type
                         _______ _______ _______ _____ _____    ______ ____

>  <TORSDO>
F 6

$$$$
=
 OpenBabel07192307433D

 45 48  0  0  1  0  0  0  0  0999 V2000
    1.7270   13.2510   19.3520 C   0  0  1  0  0  0  0  0  0  0  0  0
    0.2700   13.6780   19.2100 C   0  0  0  0  0  0  0  0  0  0  0  0
   -0.3830   12.4700   18.5280 C   0  0  1  0  0  0  0  0  0  0  0  0
    0.3870   11.3200   19.0050 N   0  0  0  0  0  0  0  0  0  0  0  0
    0.2090   10.0800   18.4140 C   0  0  0  0  0  0  0  0  0  0  0  0
   -0.5830    9.8770   17.5000 O   0  0  0  0  0  0  0  0  0  0  0  0
    1.6040   11.7590   19.6850 C   0  0  0  0  0  0  0  0  0  0  0  0
    2.2610   13.7860   20.1460 H   0  0  0  0  0  0  0  0  0  0  0  0
   -0.1560   13.8480   20.2080 H   0  0  0  0  0  0  0  0  0  0  0  0
    0.1250   14.5880   18.6200 H   0  0  0  0  0  0  0  0  0  0  0  0
   -0.2670   12.5310   17.4390 H   0  0  0  0  0  0  0  0  0  0  0  0
    1.4410   11.6160   20.7580 H   0  0  0  0  0  0  0  0  0  0  0  0
    2.4720   11.1820   19.3520 H   0  0  0  0  0  0  0  0  0  0  0  0
    1.0080    8.9410   18.9230 C   0  0  0  0  0  0  0  0  0  0  0  0
    0.8950    8.5920   20.2700 C   0  0  0  0  0  0  0  0  0  0  0  0
    1.6470    7.5310   20.7680 C   0  0  0  0  0  0  0  0  0  0  0  0
    2.5200    6.8300   19.9290 C   0  0  0  0  0  0  0  0  0  0  0  0
    2.6600    7.1930   18.5790 C   0  0  0  0  0  0  0  0  0  0  0  0
    1.8990    8.2620   18.0810 C   0  0  0  0  0  0  0  0  0  0  0  0
    0.2270    9.1450   20.9260 H   0  0  0  0  0  0  0  0  0  0  0  0
    1.5620    7.2540   21.8160 H   0  0  0  0  0  0  0  0  0  0  0  0
    3.0860    6.0160   20.3730 H   0  0  0  0  0  0  0  0  0  0  0  0
    1.9890    8.6040   17.0550 H   0  0  0  0  0  0  0  0  0  0  0  0
    3.5630    6.4900   17.7260 N   0  0  0  0  0  0  0  0  0  0  0  0
    4.5370    7.0280   16.9120 C   0  0  0  0  0  0  0  0  0  0  0  0
    5.1400    5.9670   16.2790 C   0  0  0  0  0  0  0  0  0  0  0  0
    4.5730    4.7890   16.6650 N   0  0  0  0  0  0  0  0  0  0  0  0
    3.6420    5.1270   17.5300 C   0  0  0  0  0  0  0  0  0  0  0  0
    4.7400    8.0860   16.8410 H   0  0  0  0  0  0  0  0  0  0  0  0
    5.9530    5.9940   15.5640 H   0  0  0  0  0  0  0  0  0  0  0  0
    3.0040    4.4160   18.0340 H   0  0  0  0  0  0  0  0  0  0  0  0
   -1.8300   12.3840   18.8840 C   0  0  0  0  0  0  0  0  0  0  0  0
   -2.4290   12.6610   20.0240 N   0  0  0  0  0  0  0  0  0  0  0  0
   -3.7330   12.3460   19.7460 C   0  0  0  0  0  0  0  0  0  0  0  0
   -3.9490   11.8450   18.5230 N   0  0  0  0  0  0  0  0  0  0  0  0
   -2.6790   11.8720   17.9420 O   0  0  0  0  0  0  0  0  0  0  0  0
   -4.8200   12.5280   20.7250 C   0  0  0  0  0  0  0  0  0  0  0  0
   -5.5670   11.7340   20.6330 H   0  0  0  0  0  0  0  0  0  0  0  0
   -4.4220   12.5040   21.7450 H   0  0  0  0  0  0  0  0  0  0  0  0
   -5.3260   13.4860   20.5720 H   0  0  0  0  0  0  0  0  0  0  0  0
    2.4260   13.3920   18.1120 O   0  0  0  0  0  0  0  0  0  0  0  0
    3.3150   14.5010   18.0960 C   0  0  0  0  0  0  0  0  0  0  0  0
    4.3570   14.1720   18.1380 H   0  0  0  0  0  0  0  0  0  0  0  0
    3.1110   15.1160   18.9770 H   0  0  0  0  0  0  0  0  0  0  0  0
    3.1500   15.1100   17.2030 H   0  0  0  0  0  0  0  0  0  0  0  0
  1  7  1  0  0  0  0
  1  8  1  1  0  0  0
  2  1  1  0  0  0  0
  2  9  1  0  0  0  0
  3 11  1  6  0  0  0
  3 32  1  0  0  0  0
  3  4  1  0  0  0  0
  3  2  1  0  0  0  0
  4  7  1  0  0  0  0
  5 14  1  0  0  0  0
  5  4  1  0  0  0  0
  6  5  2  0  0  0  0
  7 12  1  0  0  0  0
 10  2  1  0  0  0  0
 13  7  1  0  0  0  0
 14 15  1  0  0  0  0
 15 16  2  0  0  0  0
 15 20  1  0  0  0  0
 16 21  1  0  0  0  0
 17 22  1  0  0  0  0
 17 16  1  0  0  0  0
 18 17  2  0  0  0  0
 19 18  1  0  0  0  0
 19 14  2  0  0  0  0
 23 19  1  0  0  0  0
 24 18  1  0  0  0  0
 25 24  1  0  0  0  0
 26 27  1  0  0  0  0
 26 25  2  0  0  0  0
 27 28  2  0  0  0  0
 28 24  1  0  0  0  0
 28 31  1  0  0  0  0
 29 25  1  0  0  0  0
 30 26  1  0  0  0  0
 32 33  2  0  0  0  0
 34 33  1  0  0  0  0
 34 37  1  0  0  0  0
 35 34  2  0  0  0  0
 36 35  1  0  0  0  0
 36 32  1  0  0  0  0
 37 39  1  0  0  0  0
 38 37  1  0  0  0  0
 40 37  1  0  0  0  0
 41  1  1  0  0  0  0
 42 41  1  0  0  0  0
 42 43  1  0  0  0  0
 42 44  1  0  0  0  0
 45 42  1  0  0  0  0
M  END
>  <MODEL>
9

>  <REMARK>
 VINA RESULT:    -6.407      3.059      8.582
 INTER + INTRA:          -8.066
 INTER:                  -7.698
 INTRA:                  -0.368
 UNBOUND:                 0.214
  Name = 
  6 active torsions:
  status: ('A' for Active; 'I' for Inactive)
    1  A    between atoms: C_1  and  O_2
    2  A    between atoms: O_2  and  C_3
    3  A    between atoms: C_5  and  C_6
    4  A    between atoms: C_8  and  C_9
    5  A    between atoms: C_13  and  C_15
    6  A    between atoms: C_19  and  N_20
                            x       y       z     vdW  Elec       q    Type
                         _______ _______ _______ _____ _____    ______ ____

>  <TORSDO>
F 6

$$$$
=
 OpenBabel07192307433D

 45 48  0  0  1  0  0  0  0  0999 V2000
    0.0010    9.2670   21.6630 C   0  0  1  0  0  0  0  0  0  0  0  0
   -0.9350   10.1000   20.7940 C   0  0  0  0  0  0  0  0  0  0  0  0
   -0.1220   10.3140   19.5110 C   0  0  1  0  0  0  0  0  0  0  0  0
    0.7080    9.1130   19.3990 N   0  0  0  0  0  0  0  0  0  0  0  0
    1.7330    9.0700   18.4690 C   0  0  0  0  0  0  0  0  0  0  0  0
    1.9880    9.9930   17.7030 O   0  0  0  0  0  0  0  0  0  0  0  0
    0.6660    8.3390   20.6380 C   0  0  0  0  0  0  0  0  0  0  0  0
   -0.5220    8.6880   22.4320 H   0  0  0  0  0  0  0  0  0  0  0  0
   -1.8490    9.5260   20.5920 H   0  0  0  0  0  0  0  0  0  0  0  0
   -1.2260   11.0560   21.2380 H   0  0  0  0  0  0  0  0  0  0  0  0
    0.5430   11.1810   19.6140 H   0  0  0  0  0  0  0  0  0  0  0  0
    0.0380    7.4630   20.4480 H   0  0  0  0  0  0  0  0  0  0  0  0
    1.6690    8.0280   20.9440 H   0  0  0  0  0  0  0  0  0  0  0  0
    2.5530    7.8380   18.3880 C   0  0  0  0  0  0  0  0  0  0  0  0
    3.5380    7.7530   17.4030 C   0  0  0  0  0  0  0  0  0  0  0  0
    4.3100    6.5980   17.3050 C   0  0  0  0  0  0  0  0  0  0  0  0
    4.0900    5.5260   18.1770 C   0  0  0  0  0  0  0  0  0  0  0  0
    3.0820    5.5940   19.1520 C   0  0  0  0  0  0  0  0  0  0  0  0
    2.3070    6.7590   19.2480 C   0  0  0  0  0  0  0  0  0  0  0  0
    3.7010    8.5800   16.7160 H   0  0  0  0  0  0  0  0  0  0  0  0
    5.0810    6.5270   16.5410 H   0  0  0  0  0  0  0  0  0  0  0  0
    4.7190    4.6490   18.0500 H   0  0  0  0  0  0  0  0  0  0  0  0
    1.4960    6.8550   19.9620 H   0  0  0  0  0  0  0  0  0  0  0  0
    2.8440    4.4940   20.0310 N   0  0  0  0  0  0  0  0  0  0  0  0
    1.8950    4.4080   21.0280 C   0  0  0  0  0  0  0  0  0  0  0  0
    2.0560    3.1710   21.6060 C   0  0  0  0  0  0  0  0  0  0  0  0
    3.0730    2.4870   21.0100 N   0  0  0  0  0  0  0  0  0  0  0  0
    3.5210    3.2920   20.0730 C   0  0  0  0  0  0  0  0  0  0  0  0
    1.1880    5.1920   21.2490 H   0  0  0  0  0  0  0  0  0  0  0  0
    1.4890    2.7410   22.4230 H   0  0  0  0  0  0  0  0  0  0  0  0
    4.3350    3.0450   19.4060 H   0  0  0  0  0  0  0  0  0  0  0  0
   -1.0280   10.5000   18.3390 C   0  0  0  0  0  0  0  0  0  0  0  0
   -1.4340    9.6200   17.4470 N   0  0  0  0  0  0  0  0  0  0  0  0
   -2.1990   10.3920   16.6120 C   0  0  0  0  0  0  0  0  0  0  0  0
   -2.2370   11.6950   16.9180 N   0  0  0  0  0  0  0  0  0  0  0  0
   -1.4580   11.7710   18.0740 O   0  0  0  0  0  0  0  0  0  0  0  0
   -2.9180    9.8330   15.4530 C   0  0  0  0  0  0  0  0  0  0  0  0
   -2.2160    9.4410   14.7100 H   0  0  0  0  0  0  0  0  0  0  0  0
   -3.5720    9.0140   15.7680 H   0  0  0  0  0  0  0  0  0  0  0  0
   -3.5290   10.5990   14.9660 H   0  0  0  0  0  0  0  0  0  0  0  0
    1.0070   10.0860   22.2650 O   0  0  0  0  0  0  0  0  0  0  0  0
    2.0010    9.3350   22.9510 C   0  0  0  0  0  0  0  0  0  0  0  0
    2.8270    9.9750   23.2720 H   0  0  0  0  0  0  0  0  0  0  0  0
    2.3950    8.5810   22.2630 H   0  0  0  0  0  0  0  0  0  0  0  0
    1.5650    8.8240   23.8130 H   0  0  0  0  0  0  0  0  0  0  0  0
  1 41  1  0  0  0  0
  1  8  1  1  0  0  0
  2 10  1  0  0  0  0
  2  1  1  0  0  0  0
  3 11  1  1  0  0  0
  3  2  1  0  0  0  0
  4  3  1  0  0  0  0
  4  7  1  0  0  0  0
  5  4  1  0  0  0  0
  6  5  2  0  0  0  0
  7 13  1  0  0  0  0
  7  1  1  0  0  0  0
  9  2  1  0  0  0  0
 12  7  1  0  0  0  0
 14  5  1  0  0  0  0
 14 19  1  0  0  0  0
 15 14  2  0  0  0  0
 16 15  1  0  0  0  0
 16 17  2  0  0  0  0
 17 18  1  0  0  0  0
 18 19  2  0  0  0  0
 18 24  1  0  0  0  0
 19 23  1  0  0  0  0
 20 15  1  0  0  0  0
 21 16  1  0  0  0  0
 22 17  1  0  0  0  0
 24 28  1  0  0  0  0
 24 25  1  0  0  0  0
 25 29  1  0  0  0  0
 25 26  2  0  0  0  0
 26 30  1  0  0  0  0
 27 26  1  0  0  0  0
 28 27  2  0  0  0  0
 31 28  1  0  0  0  0
 32  3  1  0  0  0  0
 33 32  2  0  0  0  0
 34 35  2  0  0  0  0
 34 33  1  0  0  0  0
 35 36  1  0  0  0  0
 36 32  1  0  0  0  0
 37 39  1  0  0  0  0
 37 34  1  0  0  0  0
 38 37  1  0  0  0  0
 40 37  1  0  0  0  0
 41 42  1  0  0  0  0
 42 43  1  0  0  0  0
 42 45  1  0  0  0  0
 44 42  1  0  0  0  0
M  END
>  <MODEL>
10

>  <REMARK>
 VINA RESULT:    -6.350      2.784      7.658
 INTER + INTRA:          -7.993
 INTER:                  -8.188
 INTRA:                   0.196
 UNBOUND:                 0.214
  Name = 
  6 active torsions:
  status: ('A' for Active; 'I' for Inactive)
    1  A    between atoms: C_1  and  O_2
    2  A    between atoms: O_2  and  C_3
    3  A    between atoms: C_5  and  C_6
    4  A    between atoms: C_8  and  C_9
    5  A    between atoms: C_13  and  C_15
    6  A    between atoms: C_19  and  N_20
                            x       y       z     vdW  Elec       q    Type
                         _______ _______ _______ _____ _____    ______ ____

>  <TORSDO>
F 6

$$$$
=
 OpenBabel07192307433D

 45 48  0  0  1  0  0  0  0  0999 V2000
    0.4430   11.0480   21.2670 C   0  0  1  0  0  0  0  0  0  0  0  0
   -0.6490   11.4460   20.2810 C   0  0  0  0  0  0  0  0  0  0  0  0
   -0.1580   10.8480   18.9560 C   0  0  1  0  0  0  0  0  0  0  0  0
    0.5890    9.6520   19.3500 N   0  0  0  0  0  0  0  0  0  0  0  0
    1.3620    8.9860   18.4140 C   0  0  0  0  0  0  0  0  0  0  0  0
    1.4530    9.3360   17.2420 O   0  0  0  0  0  0  0  0  0  0  0  0
    0.8210    9.6390   20.7930 C   0  0  0  0  0  0  0  0  0  0  0  0
    0.1020   11.0310   22.3090 H   0  0  0  0  0  0  0  0  0  0  0  0
   -1.6000   10.9940   20.5910 H   0  0  0  0  0  0  0  0  0  0  0  0
   -0.8010   12.5260   20.1920 H   0  0  0  0  0  0  0  0  0  0  0  0
    0.5350   11.5350   18.4550 H   0  0  0  0  0  0  0  0  0  0  0  0
    0.1410    8.8940   21.2200 H   0  0  0  0  0  0  0  0  0  0  0  0
    1.8580    9.3830   21.0240 H   0  0  0  0  0  0  0  0  0  0  0  0
    2.1050    7.7810   18.8510 C   0  0  0  0  0  0  0  0  0  0  0  0
    1.6970    7.1260   20.0140 C   0  0  0  0  0  0  0  0  0  0  0  0
    2.3910    5.9980   20.4450 C   0  0  0  0  0  0  0  0  0  0  0  0
    3.4990    5.5350   19.7270 C   0  0  0  0  0  0  0  0  0  0  0  0
    3.9340    6.2050   18.5720 C   0  0  0  0  0  0  0  0  0  0  0  0
    3.2310    7.3390   18.1410 C   0  0  0  0  0  0  0  0  0  0  0  0
    0.8440    7.4930   20.5800 H   0  0  0  0  0  0  0  0  0  0  0  0
    2.0750    5.4830   21.3490 H   0  0  0  0  0  0  0  0  0  0  0  0
    4.0050    4.6540   20.1140 H   0  0  0  0  0  0  0  0  0  0  0  0
    3.5390    7.9130   17.2730 H   0  0  0  0  0  0  0  0  0  0  0  0
    5.0740    5.7440   17.8490 N   0  0  0  0  0  0  0  0  0  0  0  0
    6.0640    4.8940   18.2970 C   0  0  0  0  0  0  0  0  0  0  0  0
    6.9500    4.7500   17.2550 C   0  0  0  0  0  0  0  0  0  0  0  0
    6.5500    5.4830   16.1770 N   0  0  0  0  0  0  0  0  0  0  0  0
    5.4300    6.0590   16.5530 C   0  0  0  0  0  0  0  0  0  0  0  0
    6.0740    4.4560   19.2830 H   0  0  0  0  0  0  0  0  0  0  0  0
    7.8550    4.1560   17.2300 H   0  0  0  0  0  0  0  0  0  0  0  0
    4.8480    6.7120   15.9200 H   0  0  0  0  0  0  0  0  0  0  0  0
   -1.3110   10.5400   18.0600 C   0  0  0  0  0  0  0  0  0  0  0  0
   -1.6620   11.1040   16.9230 N   0  0  0  0  0  0  0  0  0  0  0  0
   -2.8110   10.4260   16.6100 C   0  0  0  0  0  0  0  0  0  0  0  0
   -3.2030    9.5220   17.5160 N   0  0  0  0  0  0  0  0  0  0  0  0
   -2.2010    9.5930   18.4870 O   0  0  0  0  0  0  0  0  0  0  0  0
   -3.5700   10.6810   15.3720 C   0  0  0  0  0  0  0  0  0  0  0  0
   -4.2190   11.5560   15.4850 H   0  0  0  0  0  0  0  0  0  0  0  0
   -2.8880   10.8700   14.5380 H   0  0  0  0  0  0  0  0  0  0  0  0
   -4.2010    9.8250   15.1180 H   0  0  0  0  0  0  0  0  0  0  0  0
    1.5850   11.9000   21.1400 O   0  0  0  0  0  0  0  0  0  0  0  0
    1.2500   13.2820   21.1160 C   0  0  0  0  0  0  0  0  0  0  0  0
    1.6160   13.7600   20.2030 H   0  0  0  0  0  0  0  0  0  0  0  0
    1.7260   13.7650   21.9740 H   0  0  0  0  0  0  0  0  0  0  0  0
    0.1680   13.4130   21.2010 H   0  0  0  0  0  0  0  0  0  0  0  0
  1  8  1  1  0  0  0
  2  9  1  0  0  0  0
  2  1  1  0  0  0  0
  3 11  1  6  0  0  0
  3  4  1  0  0  0  0
  3  2  1  0  0  0  0
  4  7  1  0  0  0  0
  5 14  1  0  0  0  0
  5  4  1  0  0  0  0
  6  5  2  0  0  0  0
  7 13  1  0  0  0  0
  7 12  1  0  0  0  0
  7  1  1  0  0  0  0
 10  2  1  0  0  0  0
 14 15  1  0  0  0  0
 15 16  2  0  0  0  0
 15 20  1  0  0  0  0
 16 21  1  0  0  0  0
 17 22  1  0  0  0  0
 17 16  1  0  0  0  0
 18 17  2  0  0  0  0
 19 18  1  0  0  0  0
 19 14  2  0  0  0  0
 23 19  1  0  0  0  0
 24 25  1  0  0  0  0
 24 18  1  0  0  0  0
 25 29  1  0  0  0  0
 26 25  2  0  0  0  0
 27 28  2  0  0  0  0
 27 26  1  0  0  0  0
 28 24  1  0  0  0  0
 30 26  1  0  0  0  0
 31 28  1  0  0  0  0
 32 36  1  0  0  0  0
 32  3  1  0  0  0  0
 33 32  2  0  0  0  0
 34 33  1  0  0  0  0
 34 35  2  0  0  0  0
 35 36  1  0  0  0  0
 37 38  1  0  0  0  0
 37 34  1  0  0  0  0
 39 37  1  0  0  0  0
 40 37  1  0  0  0  0
 41  1  1  0  0  0  0
 42 41  1  0  0  0  0
 42 45  1  0  0  0  0
 42 44  1  0  0  0  0
 43 42  1  0  0  0  0
M  END
>  <MODEL>
11

>  <REMARK>
 VINA RESULT:    -6.228      2.546      7.960
 INTER + INTRA:          -7.835
 INTER:                  -7.896
 INTRA:                   0.061
 UNBOUND:                 0.214
  Name = 
  6 active torsions:
  status: ('A' for Active; 'I' for Inactive)
    1  A    between atoms: C_1  and  O_2
    2  A    between atoms: O_2  and  C_3
    3  A    between atoms: C_5  and  C_6
    4  A    between atoms: C_8  and  C_9
    5  A    between atoms: C_13  and  C_15
    6  A    between atoms: C_19  and  N_20
                            x       y       z     vdW  Elec       q    Type
                         _______ _______ _______ _____ _____    ______ ____

>  <TORSDO>
F 6

$$$$
=
 OpenBabel07192307433D

 45 48  0  0  1  0  0  0  0  0999 V2000
    3.6690    7.2820   17.2420 C   0  0  1  0  0  0  0  0  0  0  0  0
    3.5660    5.9110   17.9000 C   0  0  0  0  0  0  0  0  0  0  0  0
    3.0510    6.2360   19.3080 C   0  0  1  0  0  0  0  0  0  0  0  0
    2.2320    7.4370   19.1290 N   0  0  0  0  0  0  0  0  0  0  0  0
    1.7880    8.1380   20.2380 C   0  0  0  0  0  0  0  0  0  0  0  0
    2.0340    7.8000   21.3910 O   0  0  0  0  0  0  0  0  0  0  0  0
    2.4390    8.0110   17.8010 C   0  0  0  0  0  0  0  0  0  0  0  0
    3.6350    7.2420   16.1480 H   0  0  0  0  0  0  0  0  0  0  0  0
    2.8440    5.2970   17.3460 H   0  0  0  0  0  0  0  0  0  0  0  0
    4.5130    5.3630   17.9450 H   0  0  0  0  0  0  0  0  0  0  0  0
    3.8840    6.4870   19.9760 H   0  0  0  0  0  0  0  0  0  0  0  0
    1.5500    7.7750   17.2070 H   0  0  0  0  0  0  0  0  0  0  0  0
    2.5830    9.0930   17.8560 H   0  0  0  0  0  0  0  0  0  0  0  0
    0.9640    9.3490   20.0160 C   0  0  0  0  0  0  0  0  0  0  0  0
    1.1430   10.4460   20.8600 C   0  0  0  0  0  0  0  0  0  0  0  0
    0.3700   11.5880   20.6740 C   0  0  0  0  0  0  0  0  0  0  0  0
   -0.5910   11.6310   19.6570 C   0  0  0  0  0  0  0  0  0  0  0  0
   -0.7970   10.5210   18.8210 C   0  0  0  0  0  0  0  0  0  0  0  0
   -0.0140    9.3730   19.0120 C   0  0  0  0  0  0  0  0  0  0  0  0
    1.8800   10.4080   21.6600 H   0  0  0  0  0  0  0  0  0  0  0  0
    0.5070   12.4460   21.3280 H   0  0  0  0  0  0  0  0  0  0  0  0
   -1.1690   12.5460   19.5620 H   0  0  0  0  0  0  0  0  0  0  0  0
   -0.1500    8.4760   18.4160 H   0  0  0  0  0  0  0  0  0  0  0  0
   -1.7880   10.5570   17.7950 N   0  0  0  0  0  0  0  0  0  0  0  0
   -2.7770   11.5010   17.6170 C   0  0  0  0  0  0  0  0  0  0  0  0
   -3.4910   11.1090   16.5090 C   0  0  0  0  0  0  0  0  0  0  0  0
   -2.9860    9.9520   15.9940 N   0  0  0  0  0  0  0  0  0  0  0  0
   -1.9710    9.6480   16.7730 C   0  0  0  0  0  0  0  0  0  0  0  0
   -2.9020   12.3620   18.2550 H   0  0  0  0  0  0  0  0  0  0  0  0
   -4.3420   11.6030   16.0590 H   0  0  0  0  0  0  0  0  0  0  0  0
   -1.3460    8.7780   16.6330 H   0  0  0  0  0  0  0  0  0  0  0  0
    2.2770    5.0870   19.8630 C   0  0  0  0  0  0  0  0  0  0  0  0
    2.4120    4.4650   21.0150 N   0  0  0  0  0  0  0  0  0  0  0  0
    1.4580    3.4850   20.9250 C   0  0  0  0  0  0  0  0  0  0  0  0
    0.7920    3.4450   19.7650 N   0  0  0  0  0  0  0  0  0  0  0  0
    1.3330    4.5170   19.0520 O   0  0  0  0  0  0  0  0  0  0  0  0
    1.1940    2.5320   22.0190 C   0  0  0  0  0  0  0  0  0  0  0  0
    1.6630    2.8670   22.9500 H   0  0  0  0  0  0  0  0  0  0  0  0
    0.1170    2.4420   22.1940 H   0  0  0  0  0  0  0  0  0  0  0  0
    1.5910    1.5420   21.7780 H   0  0  0  0  0  0  0  0  0  0  0  0
    4.8470    7.9700   17.6710 O   0  0  0  0  0  0  0  0  0  0  0  0
    6.0450    7.2640   17.3710 C   0  0  0  0  0  0  0  0  0  0  0  0
    6.9040    7.9410   17.3380 H   0  0  0  0  0  0  0  0  0  0  0  0
    5.9320    6.8020   16.3860 H   0  0  0  0  0  0  0  0  0  0  0  0
    6.2170    6.4750   18.1070 H   0  0  0  0  0  0  0  0  0  0  0  0
  1  8  1  6  0  0  0
  1 41  1  0  0  0  0
  1  7  1  0  0  0  0
  1  2  1  0  0  0  0
  2 10  1  0  0  0  0
  2  3  1  0  0  0  0
  3 32  1  0  0  0  0
  3 11  1  1  0  0  0
  4  3  1  0  0  0  0
  4  5  1  0  0  0  0
  5  6  2  0  0  0  0
  7 13  1  0  0  0  0
  7  4  1  0  0  0  0
  9  2  1  0  0  0  0
 12  7  1  0  0  0  0
 14  5  1  0  0  0  0
 14 15  1  0  0  0  0
 15 20  1  0  0  0  0
 16 15  2  0  0  0  0
 16 21  1  0  0  0  0
 17 16  1  0  0  0  0
 18 19  1  0  0  0  0
 18 17  2  0  0  0  0
 19 14  2  0  0  0  0
 22 17  1  0  0  0  0
 23 19  1  0  0  0  0
 24 18  1  0  0  0  0
 25 24  1  0  0  0  0
 25 29  1  0  0  0  0
 26 25  2  0  0  0  0
 27 26  1  0  0  0  0
 27 28  2  0  0  0  0
 28 24  1  0  0  0  0
 30 26  1  0  0  0  0
 31 28  1  0  0  0  0
 32 33  2  0  0  0  0
 34 33  1  0  0  0  0
 34 37  1  0  0  0  0
 35 34  2  0  0  0  0
 36 35  1  0  0  0  0
 36 32  1  0  0  0  0
 37 39  1  0  0  0  0
 37 38  1  0  0  0  0
 40 37  1  0  0  0  0
 42 41  1  0  0  0  0
 42 45  1  0  0  0  0
 43 42  1  0  0  0  0
 44 42  1  0  0  0  0
M  END
>  <MODEL>
12

>  <REMARK>
 VINA RESULT:    -6.225      2.197      4.175
 INTER + INTRA:          -7.831
 INTER:                  -7.393
 INTRA:                  -0.438
 UNBOUND:                 0.214
  Name = 
  6 active torsions:
  status: ('A' for Active; 'I' for Inactive)
    1  A    between atoms: C_1  and  O_2
    2  A    between atoms: O_2  and  C_3
    3  A    between atoms: C_5  and  C_6
    4  A    between atoms: C_8  and  C_9
    5  A    between atoms: C_13  and  C_15
    6  A    between atoms: C_19  and  N_20
                            x       y       z     vdW  Elec       q    Type
                         _______ _______ _______ _____ _____    ______ ____

>  <TORSDO>
F 6

$$$$
=
 OpenBabel07192307433D

 45 48  0  0  1  0  0  0  0  0999 V2000
    4.0120    7.0460   17.0250 C   0  0  1  0  0  0  0  0  0  0  0  0
    3.8430    5.7320   17.7800 C   0  0  0  0  0  0  0  0  0  0  0  0
    3.2160    6.1710   19.1100 C   0  0  1  0  0  0  0  0  0  0  0  0
    2.4260    7.3550   18.7680 N   0  0  0  0  0  0  0  0  0  0  0  0
    1.8990    8.1440   19.7770 C   0  0  0  0  0  0  0  0  0  0  0  0
    2.0450    7.9000   20.9700 O   0  0  0  0  0  0  0  0  0  0  0  0
    2.7480    7.8200   17.4200 C   0  0  0  0  0  0  0  0  0  0  0  0
    4.0690    6.9190   15.9390 H   0  0  0  0  0  0  0  0  0  0  0  0
    3.1640    5.0770   17.2190 H   0  0  0  0  0  0  0  0  0  0  0  0
    4.7780    5.1880   17.9470 H   0  0  0  0  0  0  0  0  0  0  0  0
    3.9930    6.4720   19.8230 H   0  0  0  0  0  0  0  0  0  0  0  0
    1.9080    7.5400   16.7750 H   0  0  0  0  0  0  0  0  0  0  0  0
    2.8960    8.9030   17.4010 H   0  0  0  0  0  0  0  0  0  0  0  0
    1.1070    9.3360   19.3910 C   0  0  0  0  0  0  0  0  0  0  0  0
   -0.2660    9.1910   19.1860 C   0  0  0  0  0  0  0  0  0  0  0  0
   -1.0230   10.2970   18.8120 C   0  0  0  0  0  0  0  0  0  0  0  0
   -0.4110   11.5420   18.6300 C   0  0  0  0  0  0  0  0  0  0  0  0
    0.9740   11.6900   18.8070 C   0  0  0  0  0  0  0  0  0  0  0  0
    1.7330   10.5730   19.1850 C   0  0  0  0  0  0  0  0  0  0  0  0
   -0.7400    8.2200   19.3140 H   0  0  0  0  0  0  0  0  0  0  0  0
   -2.0940   10.1900   18.6530 H   0  0  0  0  0  0  0  0  0  0  0  0
   -1.0510   12.3690   18.3330 H   0  0  0  0  0  0  0  0  0  0  0  0
    2.8110   10.6220   19.3070 H   0  0  0  0  0  0  0  0  0  0  0  0
    1.6030   12.9550   18.6040 N   0  0  0  0  0  0  0  0  0  0  0  0
    2.8800   13.1920   18.1390 C   0  0  0  0  0  0  0  0  0  0  0  0
    3.0370   14.5580   18.1240 C   0  0  0  0  0  0  0  0  0  0  0  0
    1.9080   15.1790   18.5670 N   0  0  0  0  0  0  0  0  0  0  0  0
    1.0680   14.2050   18.8400 C   0  0  0  0  0  0  0  0  0  0  0  0
    3.5650   12.4100   17.8520 H   0  0  0  0  0  0  0  0  0  0  0  0
    3.9090   15.1220   17.8160 H   0  0  0  0  0  0  0  0  0  0  0  0
    0.0670   14.3620   19.2130 H   0  0  0  0  0  0  0  0  0  0  0  0
    2.3880    5.0720   19.6880 C   0  0  0  0  0  0  0  0  0  0  0  0
    2.4940    4.4690   20.8530 N   0  0  0  0  0  0  0  0  0  0  0  0
    1.4950    3.5340   20.7840 C   0  0  0  0  0  0  0  0  0  0  0  0
    0.8270    3.5010   19.6240 N   0  0  0  0  0  0  0  0  0  0  0  0
    1.4190    4.5310   18.8890 O   0  0  0  0  0  0  0  0  0  0  0  0
    1.1860    2.6180   21.8970 C   0  0  0  0  0  0  0  0  0  0  0  0
    1.9940    1.8930   22.0420 H   0  0  0  0  0  0  0  0  0  0  0  0
    1.0610    3.1780   22.8290 H   0  0  0  0  0  0  0  0  0  0  0  0
    0.2650    2.0610   21.7000 H   0  0  0  0  0  0  0  0  0  0  0  0
    5.1580    7.7630   17.4940 O   0  0  0  0  0  0  0  0  0  0  0  0
    6.3800    7.0720   17.2670 C   0  0  0  0  0  0  0  0  0  0  0  0
    7.2050    7.7730   17.1120 H   0  0  0  0  0  0  0  0  0  0  0  0
    6.2670    6.4670   16.3630 H   0  0  0  0  0  0  0  0  0  0  0  0
    6.6030    6.4070   18.1040 H   0  0  0  0  0  0  0  0  0  0  0  0
  1  8  1  6  0  0  0
  1  7  1  0  0  0  0
  1 41  1  0  0  0  0
  1  2  1  0  0  0  0
  2 10  1  0  0  0  0
  2  3  1  0  0  0  0
  3 32  1  0  0  0  0
  3 11  1  1  0  0  0
  4  3  1  0  0  0  0
  4  5  1  0  0  0  0
  5  6  2  0  0  0  0
  7  4  1  0  0  0  0
  9  2  1  0  0  0  0
 12  7  1  0  0  0  0
 13  7  1  0  0  0  0
 14  5  1  0  0  0  0
 15 20  1  0  0  0  0
 15 14  1  0  0  0  0
 16 15  2  0  0  0  0
 17 18  2  0  0  0  0
 17 16  1  0  0  0  0
 18 19  1  0  0  0  0
 19 23  1  0  0  0  0
 19 14  2  0  0  0  0
 21 16  1  0  0  0  0
 22 17  1  0  0  0  0
 24 18  1  0  0  0  0
 24 28  1  0  0  0  0
 25 24  1  0  0  0  0
 26 25  2  0  0  0  0
 26 27  1  0  0  0  0
 27 28  2  0  0  0  0
 28 31  1  0  0  0  0
 29 25  1  0  0  0  0
 30 26  1  0  0  0  0
 32 33  2  0  0  0  0
 34 33  1  0  0  0  0
 34 37  1  0  0  0  0
 35 34  2  0  0  0  0
 36 35  1  0  0  0  0
 36 32  1  0  0  0  0
 37 38  1  0  0  0  0
 37 39  1  0  0  0  0
 40 37  1  0  0  0  0
 42 41  1  0  0  0  0
 42 45  1  0  0  0  0
 43 42  1  0  0  0  0
 44 42  1  0  0  0  0
M  END
>  <MODEL>
13

>  <REMARK>
 VINA RESULT:    -6.070      2.176      4.194
 INTER + INTRA:          -7.630
 INTER:                  -6.861
 INTRA:                  -0.769
 UNBOUND:                 0.214
  Name = 
  6 active torsions:
  status: ('A' for Active; 'I' for Inactive)
    1  A    between atoms: C_1  and  O_2
    2  A    between atoms: O_2  and  C_3
    3  A    between atoms: C_5  and  C_6
    4  A    between atoms: C_8  and  C_9
    5  A    between atoms: C_13  and  C_15
    6  A    between atoms: C_19  and  N_20
                            x       y       z     vdW  Elec       q    Type
                         _______ _______ _______ _____ _____    ______ ____

>  <TORSDO>
F 6

$$$$
=
 OpenBabel07192307433D

 45 48  0  0  1  0  0  0  0  0999 V2000
    7.1950    6.5110   17.4800 C   0  0  1  0  0  0  0  0  0  0  0  0
    7.5280    6.0030   16.0810 C   0  0  0  0  0  0  0  0  0  0  0  0
    6.7670    4.6730   16.0020 C   0  0  1  0  0  0  0  0  0  0  0  0
    5.5910    4.8740   16.8500 N   0  0  0  0  0  0  0  0  0  0  0  0
    4.7930    3.7930   17.1860 C   0  0  0  0  0  0  0  0  0  0  0  0
    5.0080    2.6500   16.7970 O   0  0  0  0  0  0  0  0  0  0  0  0
    5.7270    6.0960   17.6420 C   0  0  0  0  0  0  0  0  0  0  0  0
    7.3070    7.5960   17.5850 H   0  0  0  0  0  0  0  0  0  0  0  0
    7.1540    6.7190   15.3370 H   0  0  0  0  0  0  0  0  0  0  0  0
    8.5970    5.8550   15.9010 H   0  0  0  0  0  0  0  0  0  0  0  0
    7.3640    3.8600   16.4320 H   0  0  0  0  0  0  0  0  0  0  0  0
    5.0640    6.8430   17.1950 H   0  0  0  0  0  0  0  0  0  0  0  0
    5.4540    5.9220   18.6860 H   0  0  0  0  0  0  0  0  0  0  0  0
    3.6130    4.0360   18.0490 C   0  0  0  0  0  0  0  0  0  0  0  0
    2.7810    2.9610   18.3650 C   0  0  0  0  0  0  0  0  0  0  0  0
    1.6620    3.1730   19.1650 C   0  0  0  0  0  0  0  0  0  0  0  0
    1.3640    4.4570   19.6350 C   0  0  0  0  0  0  0  0  0  0  0  0
    2.1800    5.5490   19.2980 C   0  0  0  0  0  0  0  0  0  0  0  0
    3.3080    5.3300   18.4930 C   0  0  0  0  0  0  0  0  0  0  0  0
    3.0050    1.9650   17.9880 H   0  0  0  0  0  0  0  0  0  0  0  0
    1.0110    2.3380   19.4160 H   0  0  0  0  0  0  0  0  0  0  0  0
    0.4740    4.5630   20.2500 H   0  0  0  0  0  0  0  0  0  0  0  0
    3.9560    6.1410   18.1770 H   0  0  0  0  0  0  0  0  0  0  0  0
    1.8680    6.8620   19.7630 N   0  0  0  0  0  0  0  0  0  0  0  0
    1.3800    7.2180   21.0020 C   0  0  0  0  0  0  0  0  0  0  0  0
    1.2270    8.5840   20.9780 C   0  0  0  0  0  0  0  0  0  0  0  0
    1.5970    9.0900   19.7680 N   0  0  0  0  0  0  0  0  0  0  0  0
    1.9790    8.0470   19.0650 C   0  0  0  0  0  0  0  0  0  0  0  0
    1.1880    6.5120   21.7950 H   0  0  0  0  0  0  0  0  0  0  0  0
    0.8690    9.2270   21.7730 H   0  0  0  0  0  0  0  0  0  0  0  0
    2.3410    8.1060   18.0490 H   0  0  0  0  0  0  0  0  0  0  0  0
    6.4120    4.3550   14.5880 C   0  0  0  0  0  0  0  0  0  0  0  0
    5.2970    3.8550   14.0980 N   0  0  0  0  0  0  0  0  0  0  0  0
    5.5920    3.7520   12.7630 C   0  0  0  0  0  0  0  0  0  0  0  0
    6.8370    4.1110   12.4270 N   0  0  0  0  0  0  0  0  0  0  0  0
    7.3880    4.5190   13.6440 O   0  0  0  0  0  0  0  0  0  0  0  0
    4.6160    3.2670   11.7700 C   0  0  0  0  0  0  0  0  0  0  0  0
    4.9640    3.4660   10.7510 H   0  0  0  0  0  0  0  0  0  0  0  0
    4.4710    2.1870   11.8750 H   0  0  0  0  0  0  0  0  0  0  0  0
    3.6490    3.7620   11.8990 H   0  0  0  0  0  0  0  0  0  0  0  0
    7.9780    5.8390   18.4700 O   0  0  0  0  0  0  0  0  0  0  0  0
    7.2390    5.5220   19.6430 C   0  0  0  0  0  0  0  0  0  0  0  0
    7.8850    5.5190   20.5260 H   0  0  0  0  0  0  0  0  0  0  0  0
    6.8170    4.5200   19.5210 H   0  0  0  0  0  0  0  0  0  0  0  0
    6.4180    6.2300   19.7800 H   0  0  0  0  0  0  0  0  0  0  0  0
  1  8  1  1  0  0  0
  1  7  1  0  0  0  0
  1 41  1  0  0  0  0
  2  1  1  0  0  0  0
  3  2  1  0  0  0  0
  3 11  1  1  0  0  0
  3  4  1  0  0  0  0
  4  5  1  0  0  0  0
  4  7  1  0  0  0  0
  5 14  1  0  0  0  0
  6  5  2  0  0  0  0
  7 13  1  0  0  0  0
  9  2  1  0  0  0  0
 10  2  1  0  0  0  0
 12  7  1  0  0  0  0
 14 15  2  0  0  0  0
 14 19  1  0  0  0  0
 15 16  1  0  0  0  0
 16 21  1  0  0  0  0
 16 17  2  0  0  0  0
 17 22  1  0  0  0  0
 18 17  1  0  0  0  0
 18 24  1  0  0  0  0
 19 18  2  0  0  0  0
 20 15  1  0  0  0  0
 23 19  1  0  0  0  0
 24 25  1  0  0  0  0
 25 29  1  0  0  0  0
 26 25  2  0  0  0  0
 26 30  1  0  0  0  0
 27 26  1  0  0  0  0
 28 24  1  0  0  0  0
 28 27  2  0  0  0  0
 31 28  1  0  0  0  0
 32  3  1  0  0  0  0
 33 32  2  0  0  0  0
 34 33  1  0  0  0  0
 35 34  2  0  0  0  0
 35 36  1  0  0  0  0
 36 32  1  0  0  0  0
 37 39  1  0  0  0  0
 37 40  1  0  0  0  0
 37 34  1  0  0  0  0
 38 37  1  0  0  0  0
 41 42  1  0  0  0  0
 42 45  1  0  0  0  0
 42 43  1  0  0  0  0
 44 42  1  0  0  0  0
M  END
>  <MODEL>
14

>  <REMARK>
 VINA RESULT:    -6.069      2.938      5.589
 INTER + INTRA:          -7.630
 INTER:                  -8.362
 INTRA:                   0.733
 UNBOUND:                 0.214
  Name = 
  6 active torsions:
  status: ('A' for Active; 'I' for Inactive)
    1  A    between atoms: C_1  and  O_2
    2  A    between atoms: O_2  and  C_3
    3  A    between atoms: C_5  and  C_6
    4  A    between atoms: C_8  and  C_9
    5  A    between atoms: C_13  and  C_15
    6  A    between atoms: C_19  and  N_20
                            x       y       z     vdW  Elec       q    Type
                         _______ _______ _______ _____ _____    ______ ____

>  <TORSDO>
F 6

$$$$
=
 OpenBabel07192307433D

 45 48  0  0  1  0  0  0  0  0999 V2000
    4.0460    6.7690   17.2160 C   0  0  1  0  0  0  0  0  0  0  0  0
    3.8650    5.4370   17.9360 C   0  0  0  0  0  0  0  0  0  0  0  0
    3.2530    5.8470   19.2810 C   0  0  1  0  0  0  0  0  0  0  0  0
    2.4760    7.0500   18.9770 N   0  0  0  0  0  0  0  0  0  0  0  0
    1.9650    7.8180   20.0100 C   0  0  0  0  0  0  0  0  0  0  0  0
    2.1150    7.5400   21.1950 O   0  0  0  0  0  0  0  0  0  0  0  0
    2.7940    7.5480   17.6400 C   0  0  0  0  0  0  0  0  0  0  0  0
    4.0950    6.6700   16.1260 H   0  0  0  0  0  0  0  0  0  0  0  0
    3.1740    4.8060   17.3620 H   0  0  0  0  0  0  0  0  0  0  0  0
    4.7940    4.8770   18.0820 H   0  0  0  0  0  0  0  0  0  0  0  0
    4.0380    6.1190   19.9970 H   0  0  0  0  0  0  0  0  0  0  0  0
    1.9480    7.2950   16.9930 H   0  0  0  0  0  0  0  0  0  0  0  0
    2.9570    8.6290   17.6490 H   0  0  0  0  0  0  0  0  0  0  0  0
    1.1860    9.0300   19.6630 C   0  0  0  0  0  0  0  0  0  0  0  0
    1.3070    9.5590   18.3770 C   0  0  0  0  0  0  0  0  0  0  0  0
    0.5910   10.7030   18.0370 C   0  0  0  0  0  0  0  0  0  0  0  0
   -0.2320   11.3270   18.9810 C   0  0  0  0  0  0  0  0  0  0  0  0
   -0.3380   10.8170   20.2860 C   0  0  0  0  0  0  0  0  0  0  0  0
    0.3850    9.6630   20.6230 C   0  0  0  0  0  0  0  0  0  0  0  0
    1.9570    9.0820   17.6470 H   0  0  0  0  0  0  0  0  0  0  0  0
    0.6800   11.1190   17.0360 H   0  0  0  0  0  0  0  0  0  0  0  0
   -0.7620   12.2200   18.6610 H   0  0  0  0  0  0  0  0  0  0  0  0
    0.3640    9.2420   21.6240 H   0  0  0  0  0  0  0  0  0  0  0  0
   -1.1630   11.4620   21.2550 N   0  0  0  0  0  0  0  0  0  0  0  0
   -2.1050   12.4440   21.0330 C   0  0  0  0  0  0  0  0  0  0  0  0
   -2.6320   12.7580   22.2640 C   0  0  0  0  0  0  0  0  0  0  0  0
   -2.0490   12.0110   23.2440 N   0  0  0  0  0  0  0  0  0  0  0  0
   -1.1840   11.2440   22.6170 C   0  0  0  0  0  0  0  0  0  0  0  0
   -2.3400   12.8370   20.0560 H   0  0  0  0  0  0  0  0  0  0  0  0
   -3.4020   13.4850   22.4910 H   0  0  0  0  0  0  0  0  0  0  0  0
   -0.5520   10.5210   23.1130 H   0  0  0  0  0  0  0  0  0  0  0  0
    2.4140    4.7430   19.8350 C   0  0  0  0  0  0  0  0  0  0  0  0
    2.4980    4.1310   20.9980 N   0  0  0  0  0  0  0  0  0  0  0  0
    1.5010    3.1960   20.9010 C   0  0  0  0  0  0  0  0  0  0  0  0
    0.8550    3.1730   19.7290 N   0  0  0  0  0  0  0  0  0  0  0  0
    1.4600    4.2080   19.0140 O   0  0  0  0  0  0  0  0  0  0  0  0
    1.1720    2.2720   22.0010 C   0  0  0  0  0  0  0  0  0  0  0  0
    2.0500    1.6890   22.2980 H   0  0  0  0  0  0  0  0  0  0  0  0
    0.8220    2.8290   22.8760 H   0  0  0  0  0  0  0  0  0  0  0  0
    0.3870    1.5700   21.7000 H   0  0  0  0  0  0  0  0  0  0  0  0
    5.2040    7.4590   17.6970 O   0  0  0  0  0  0  0  0  0  0  0  0
    6.4230    6.8280   17.3250 C   0  0  0  0  0  0  0  0  0  0  0  0
    6.5300    6.7890   16.2370 H   0  0  0  0  0  0  0  0  0  0  0  0
    6.4090    5.8040   17.7080 H   0  0  0  0  0  0  0  0  0  0  0  0
    7.2740    7.3520   17.7680 H   0  0  0  0  0  0  0  0  0  0  0  0
  1  8  1  6  0  0  0
  1  7  1  0  0  0  0
  1 41  1  0  0  0  0
  1  2  1  0  0  0  0
  2 10  1  0  0  0  0
  2  3  1  0  0  0  0
  3 32  1  0  0  0  0
  3 11  1  1  0  0  0
  4  3  1  0  0  0  0
  4  5  1  0  0  0  0
  5  6  2  0  0  0  0
  7 13  1  0  0  0  0
  7  4  1  0  0  0  0
  9  2  1  0  0  0  0
 12  7  1  0  0  0  0
 14  5  1  0  0  0  0
 14 19  1  0  0  0  0
 15 14  2  0  0  0  0
 16 15  1  0  0  0  0
 16 17  2  0  0  0  0
 17 18  1  0  0  0  0
 18 19  2  0  0  0  0
 18 24  1  0  0  0  0
 19 23  1  0  0  0  0
 20 15  1  0  0  0  0
 21 16  1  0  0  0  0
 22 17  1  0  0  0  0
 24 28  1  0  0  0  0
 25 24  1  0  0  0  0
 25 26  2  0  0  0  0
 26 30  1  0  0  0  0
 26 27  1  0  0  0  0
 28 31  1  0  0  0  0
 28 27  2  0  0  0  0
 29 25  1  0  0  0  0
 32 33  2  0  0  0  0
 34 33  1  0  0  0  0
 34 37  1  0  0  0  0
 35 34  2  0  0  0  0
 36 35  1  0  0  0  0
 36 32  1  0  0  0  0
 37 38  1  0  0  0  0
 37 39  1  0  0  0  0
 40 37  1  0  0  0  0
 42 41  1  0  0  0  0
 42 44  1  0  0  0  0
 42 45  1  0  0  0  0
 43 42  1  0  0  0  0
M  END
>  <MODEL>
15

>  <REMARK>
 VINA RESULT:    -6.011      2.215      4.293
 INTER + INTRA:          -7.555
 INTER:                  -7.874
 INTRA:                   0.319
 UNBOUND:                 0.214
  Name = 
  6 active torsions:
  status: ('A' for Active; 'I' for Inactive)
    1  A    between atoms: C_1  and  O_2
    2  A    between atoms: O_2  and  C_3
    3  A    between atoms: C_5  and  C_6
    4  A    between atoms: C_8  and  C_9
    5  A    between atoms: C_13  and  C_15
    6  A    between atoms: C_19  and  N_20
                            x       y       z     vdW  Elec       q    Type
                         _______ _______ _______ _____ _____    ______ ____

>  <TORSDO>
F 6

$$$$
=
 OpenBabel07192307433D

 45 48  0  0  1  0  0  0  0  0999 V2000
    1.5210   14.4750   19.9470 C   0  0  1  0  0  0  0  0  0  0  0  0
    0.2730   15.2670   20.3190 C   0  0  0  0  0  0  0  0  0  0  0  0
   -0.8450   14.2210   20.2250 C   0  0  1  0  0  0  0  0  0  0  0  0
   -0.1950   12.9580   20.5790 N   0  0  0  0  0  0  0  0  0  0  0  0
   -0.8640   11.7620   20.3810 C   0  0  0  0  0  0  0  0  0  0  0  0
   -2.0020   11.6920   19.9280 O   0  0  0  0  0  0  0  0  0  0  0  0
    1.2580   13.1130   20.6040 C   0  0  0  0  0  0  0  0  0  0  0  0
    2.4470   14.9190   20.3290 H   0  0  0  0  0  0  0  0  0  0  0  0
    0.3760   15.6450   21.3440 H   0  0  0  0  0  0  0  0  0  0  0  0
    0.0710   16.1190   19.6620 H   0  0  0  0  0  0  0  0  0  0  0  0
   -1.2130   14.1390   19.1940 H   0  0  0  0  0  0  0  0  0  0  0  0
    1.5610   13.1280   21.6550 H   0  0  0  0  0  0  0  0  0  0  0  0
    1.7520   12.2920   20.0770 H   0  0  0  0  0  0  0  0  0  0  0  0
   -0.1730   10.5040   20.7500 C   0  0  0  0  0  0  0  0  0  0  0  0
   -0.2830   10.0380   22.0600 C   0  0  0  0  0  0  0  0  0  0  0  0
    0.3690    8.8640   22.4270 C   0  0  0  0  0  0  0  0  0  0  0  0
    1.1430    8.1650   21.4930 C   0  0  0  0  0  0  0  0  0  0  0  0
    1.2820    8.6430   20.1800 C   0  0  0  0  0  0  0  0  0  0  0  0
    0.6220    9.8260   19.8150 C   0  0  0  0  0  0  0  0  0  0  0  0
   -0.8730   10.5870   22.7910 H   0  0  0  0  0  0  0  0  0  0  0  0
    0.2850    8.4940   23.4470 H   0  0  0  0  0  0  0  0  0  0  0  0
    1.6330    7.2590   21.8380 H   0  0  0  0  0  0  0  0  0  0  0  0
    0.7170   10.2570   18.8230 H   0  0  0  0  0  0  0  0  0  0  0  0
    2.0840    7.9410   19.2310 N   0  0  0  0  0  0  0  0  0  0  0  0
    2.5400    6.6430   19.3170 C   0  0  0  0  0  0  0  0  0  0  0  0
    3.2770    6.4170   18.1780 C   0  0  0  0  0  0  0  0  0  0  0  0
    3.3000    7.5290   17.3890 N   0  0  0  0  0  0  0  0  0  0  0  0
    2.5790    8.4190   18.0350 C   0  0  0  0  0  0  0  0  0  0  0  0
    2.3160    5.9840   20.1410 H   0  0  0  0  0  0  0  0  0  0  0  0
    3.7920    5.5090   17.8880 H   0  0  0  0  0  0  0  0  0  0  0  0
    2.3930    9.4190   17.6720 H   0  0  0  0  0  0  0  0  0  0  0  0
   -1.9690   14.5700   21.1430 C   0  0  0  0  0  0  0  0  0  0  0  0
   -1.9820   14.6490   22.4570 N   0  0  0  0  0  0  0  0  0  0  0  0
   -3.2920   14.9600   22.7120 C   0  0  0  0  0  0  0  0  0  0  0  0
   -4.0820   15.0210   21.6340 N   0  0  0  0  0  0  0  0  0  0  0  0
   -3.2010   14.7640   20.5810 O   0  0  0  0  0  0  0  0  0  0  0  0
   -3.8010   15.1950   24.0760 C   0  0  0  0  0  0  0  0  0  0  0  0
   -3.1690   15.9120   24.6110 H   0  0  0  0  0  0  0  0  0  0  0  0
   -4.8170   15.6000   24.0390 H   0  0  0  0  0  0  0  0  0  0  0  0
   -3.8180   14.2650   24.6520 H   0  0  0  0  0  0  0  0  0  0  0  0
    1.6120   14.2950   18.5310 O   0  0  0  0  0  0  0  0  0  0  0  0
    2.4370   13.1970   18.1600 C   0  0  0  0  0  0  0  0  0  0  0  0
    3.4120   13.5390   17.8050 H   0  0  0  0  0  0  0  0  0  0  0  0
    1.9420   12.6580   17.3470 H   0  0  0  0  0  0  0  0  0  0  0  0
    2.5630   12.5130   19.0030 H   0  0  0  0  0  0  0  0  0  0  0  0
  1  2  1  0  0  0  0
  1  8  1  1  0  0  0
  1  7  1  0  0  0  0
  2  9  1  0  0  0  0
  3 11  1  6  0  0  0
  3  2  1  0  0  0  0
  3  4  1  0  0  0  0
  3 32  1  0  0  0  0
  4  7  1  0  0  0  0
  5  4  1  0  0  0  0
  5 14  1  0  0  0  0
  6  5  2  0  0  0  0
  7 12  1  0  0  0  0
 10  2  1  0  0  0  0
 13  7  1  0  0  0  0
 14 15  1  0  0  0  0
 15 16  2  0  0  0  0
 15 20  1  0  0  0  0
 16 21  1  0  0  0  0
 17 22  1  0  0  0  0
 17 16  1  0  0  0  0
 18 17  2  0  0  0  0
 19 18  1  0  0  0  0
 19 14  2  0  0  0  0
 23 19  1  0  0  0  0
 24 25  1  0  0  0  0
 24 18  1  0  0  0  0
 25 29  1  0  0  0  0
 26 25  2  0  0  0  0
 27 28  2  0  0  0  0
 27 26  1  0  0  0  0
 28 24  1  0  0  0  0
 30 26  1  0  0  0  0
 31 28  1  0  0  0  0
 32 33  2  0  0  0  0
 33 34  1  0  0  0  0
 34 37  1  0  0  0  0
 35 34  2  0  0  0  0
 36 32  1  0  0  0  0
 36 35  1  0  0  0  0
 37 38  1  0  0  0  0
 37 40  1  0  0  0  0
 39 37  1  0  0  0  0
 41  1  1  0  0  0  0
 42 41  1  0  0  0  0
 42 45  1  0  0  0  0
 43 42  1  0  0  0  0
 44 42  1  0  0  0  0
M  END
>  <MODEL>
16

>  <REMARK>
 VINA RESULT:    -5.945      3.970      9.285
 INTER + INTRA:          -7.469
 INTER:                  -6.637
 INTRA:                  -0.832
 UNBOUND:                 0.214
  Name = 
  6 active torsions:
  status: ('A' for Active; 'I' for Inactive)
    1  A    between atoms: C_1  and  O_2
    2  A    between atoms: O_2  and  C_3
    3  A    between atoms: C_5  and  C_6
    4  A    between atoms: C_8  and  C_9
    5  A    between atoms: C_13  and  C_15
    6  A    between atoms: C_19  and  N_20
                            x       y       z     vdW  Elec       q    Type
                         _______ _______ _______ _____ _____    ______ ____

>  <TORSDO>
F 6

$$$$
=
 OpenBabel07192307433D

 45 48  0  0  1  0  0  0  0  0999 V2000
    1.9300   13.7480   20.1040 C   0  0  1  0  0  0  0  0  0  0  0  0
    0.7110   13.8840   21.0080 C   0  0  0  0  0  0  0  0  0  0  0  0
   -0.2020   12.7430   20.5380 C   0  0  1  0  0  0  0  0  0  0  0  0
    0.7210   11.7020   20.0810 N   0  0  0  0  0  0  0  0  0  0  0  0
    0.2340   10.6110   19.3820 C   0  0  0  0  0  0  0  0  0  0  0  0
   -0.9550   10.4500   19.1260 O   0  0  0  0  0  0  0  0  0  0  0  0
    2.0810   12.2270   19.9770 C   0  0  0  0  0  0  0  0  0  0  0  0
    2.8360   14.1970   20.5260 H   0  0  0  0  0  0  0  0  0  0  0  0
    1.0170   13.7410   22.0530 H   0  0  0  0  0  0  0  0  0  0  0  0
    0.2020   14.8500   20.9330 H   0  0  0  0  0  0  0  0  0  0  0  0
   -0.8100   13.0610   19.6830 H   0  0  0  0  0  0  0  0  0  0  0  0
    2.6460   11.8250   20.8250 H   0  0  0  0  0  0  0  0  0  0  0  0
    2.5480   11.9290   19.0340 H   0  0  0  0  0  0  0  0  0  0  0  0
    1.1990    9.5800   18.9330 C   0  0  0  0  0  0  0  0  0  0  0  0
    1.9650    9.8290   17.7940 C   0  0  0  0  0  0  0  0  0  0  0  0
    2.8680    8.8670   17.3510 C   0  0  0  0  0  0  0  0  0  0  0  0
    2.9960    7.6520   18.0350 C   0  0  0  0  0  0  0  0  0  0  0  0
    2.2080    7.3820   19.1660 C   0  0  0  0  0  0  0  0  0  0  0  0
    1.3010    8.3560   19.6080 C   0  0  0  0  0  0  0  0  0  0  0  0
    1.8560   10.7670   17.2540 H   0  0  0  0  0  0  0  0  0  0  0  0
    3.4690    9.0570   16.4650 H   0  0  0  0  0  0  0  0  0  0  0  0
    3.7130    6.9370   17.6400 H   0  0  0  0  0  0  0  0  0  0  0  0
    0.6460    8.1890   20.4580 H   0  0  0  0  0  0  0  0  0  0  0  0
    2.3250    6.1370   19.8540 N   0  0  0  0  0  0  0  0  0  0  0  0
    1.5190    5.6600   20.8660 C   0  0  0  0  0  0  0  0  0  0  0  0
    2.0270    4.4310   21.2160 C   0  0  0  0  0  0  0  0  0  0  0  0
    3.1210    4.1280   20.4620 N   0  0  0  0  0  0  0  0  0  0  0  0
    3.2740    5.1550   19.6560 C   0  0  0  0  0  0  0  0  0  0  0  0
    0.6670    6.1960   21.2540 H   0  0  0  0  0  0  0  0  0  0  0  0
    1.6570    3.7510   21.9740 H   0  0  0  0  0  0  0  0  0  0  0  0
    4.0600    5.2280   18.9180 H   0  0  0  0  0  0  0  0  0  0  0  0
   -1.0840   12.2840   21.6510 C   0  0  0  0  0  0  0  0  0  0  0  0
   -2.1940   12.8190   22.1140 N   0  0  0  0  0  0  0  0  0  0  0  0
   -2.5060   11.9780   23.1510 C   0  0  0  0  0  0  0  0  0  0  0  0
   -1.6210   10.9990   23.3750 N   0  0  0  0  0  0  0  0  0  0  0  0
   -0.6700   11.1970   22.3720 O   0  0  0  0  0  0  0  0  0  0  0  0
   -3.7190   12.1480   23.9720 C   0  0  0  0  0  0  0  0  0  0  0  0
   -3.5680   11.7460   24.9790 H   0  0  0  0  0  0  0  0  0  0  0  0
   -3.9720   13.2090   24.0640 H   0  0  0  0  0  0  0  0  0  0  0  0
   -4.5690   11.6250   23.5250 H   0  0  0  0  0  0  0  0  0  0  0  0
    1.6710   14.2960   18.8080 O   0  0  0  0  0  0  0  0  0  0  0  0
    2.6910   13.9970   17.8620 C   0  0  0  0  0  0  0  0  0  0  0  0
    3.6810   14.0330   18.3260 H   0  0  0  0  0  0  0  0  0  0  0  0
    2.6540   14.7510   17.0700 H   0  0  0  0  0  0  0  0  0  0  0  0
    2.5210   13.0150   17.4150 H   0  0  0  0  0  0  0  0  0  0  0  0
  1  8  1  1  0  0  0
  1  2  1  0  0  0  0
  2  9  1  0  0  0  0
  3 11  1  6  0  0  0
  3  2  1  0  0  0  0
  3 32  1  0  0  0  0
  4  3  1  0  0  0  0
  5  4  1  0  0  0  0
  6  5  2  0  0  0  0
  7  4  1  0  0  0  0
  7  1  1  0  0  0  0
  7 12  1  0  0  0  0
 10  2  1  0  0  0  0
 13  7  1  0  0  0  0
 14  5  1  0  0  0  0
 14 19  1  0  0  0  0
 15 14  2  0  0  0  0
 16 15  1  0  0  0  0
 16 17  2  0  0  0  0
 17 18  1  0  0  0  0
 18 19  2  0  0  0  0
 18 24  1  0  0  0  0
 19 23  1  0  0  0  0
 20 15  1  0  0  0  0
 21 16  1  0  0  0  0
 22 17  1  0  0  0  0
 24 25  1  0  0  0  0
 25 26  2  0  0  0  0
 25 29  1  0  0  0  0
 26 30  1  0  0  0  0
 27 26  1  0  0  0  0
 28 24  1  0  0  0  0
 28 27  2  0  0  0  0
 31 28  1  0  0  0  0
 32 33  2  0  0  0  0
 32 36  1  0  0  0  0
 33 34  1  0  0  0  0
 34 35  2  0  0  0  0
 34 37  1  0  0  0  0
 36 35  1  0  0  0  0
 37 39  1  0  0  0  0
 37 38  1  0  0  0  0
 40 37  1  0  0  0  0
 41  1  1  0  0  0  0
 42 43  1  0  0  0  0
 42 41  1  0  0  0  0
 44 42  1  0  0  0  0
 45 42  1  0  0  0  0
M  END
>  <MODEL>
17

>  <REMARK>
 VINA RESULT:    -5.885      3.310      8.622
 INTER + INTRA:          -7.392
 INTER:                  -6.912
 INTRA:                  -0.480
 UNBOUND:                 0.214
  Name = 
  6 active torsions:
  status: ('A' for Active; 'I' for Inactive)
    1  A    between atoms: C_1  and  O_2
    2  A    between atoms: O_2  and  C_3
    3  A    between atoms: C_5  and  C_6
    4  A    between atoms: C_8  and  C_9
    5  A    between atoms: C_13  and  C_15
    6  A    between atoms: C_19  and  N_20
                            x       y       z     vdW  Elec       q    Type
                         _______ _______ _______ _____ _____    ______ ____

>  <TORSDO>
F 6

$$$$
=
 OpenBabel07192307433D

 45 48  0  0  1  0  0  0  0  0999 V2000
    5.9750    4.0000   16.7060 C   0  0  1  0  0  0  0  0  0  0  0  0
    7.0840    5.0440   16.6480 C   0  0  0  0  0  0  0  0  0  0  0  0
    6.3360    6.3620   16.8840 C   0  0  1  0  0  0  0  0  0  0  0  0
    5.2120    5.9940   17.7480 N   0  0  0  0  0  0  0  0  0  0  0  0
    4.1970    6.9070   17.9810 C   0  0  0  0  0  0  0  0  0  0  0  0
    4.1860    8.0380   17.5070 O   0  0  0  0  0  0  0  0  0  0  0  0
    5.0680    4.5420   17.8170 C   0  0  0  0  0  0  0  0  0  0  0  0
    6.3380    2.9950   16.9520 H   0  0  0  0  0  0  0  0  0  0  0  0
    7.8070    4.8500   17.4500 H   0  0  0  0  0  0  0  0  0  0  0  0
    7.6300    5.0670   15.6990 H   0  0  0  0  0  0  0  0  0  0  0  0
    5.9300    6.7510   15.9420 H   0  0  0  0  0  0  0  0  0  0  0  0
    5.4350    4.2290   18.8000 H   0  0  0  0  0  0  0  0  0  0  0  0
    4.0240    4.2420   17.6890 H   0  0  0  0  0  0  0  0  0  0  0  0
    3.0760    6.4970   18.8580 C   0  0  0  0  0  0  0  0  0  0  0  0
    2.5990    5.1880   18.7700 C   0  0  0  0  0  0  0  0  0  0  0  0
    1.5380    4.7890   19.5790 C   0  0  0  0  0  0  0  0  0  0  0  0
    0.9450    5.6980   20.4630 C   0  0  0  0  0  0  0  0  0  0  0  0
    1.4010    7.0240   20.5370 C   0  0  0  0  0  0  0  0  0  0  0  0
    2.4700    7.4210   19.7210 C   0  0  0  0  0  0  0  0  0  0  0  0
    3.0500    4.4860   18.0730 H   0  0  0  0  0  0  0  0  0  0  0  0
    1.1640    3.7700   19.5150 H   0  0  0  0  0  0  0  0  0  0  0  0
    0.1170    5.3320   21.0650 H   0  0  0  0  0  0  0  0  0  0  0  0
    2.8440    8.4400   19.7160 H   0  0  0  0  0  0  0  0  0  0  0  0
    0.7860    7.9560   21.4260 N   0  0  0  0  0  0  0  0  0  0  0  0
    1.4120    8.8650   22.2530 C   0  0  0  0  0  0  0  0  0  0  0  0
    0.4120    9.5320   22.9210 C   0  0  0  0  0  0  0  0  0  0  0  0
   -0.8130    9.0670   22.5440 N   0  0  0  0  0  0  0  0  0  0  0  0
   -0.5640    8.1360   21.6500 C   0  0  0  0  0  0  0  0  0  0  0  0
    2.4830    8.9840   22.3070 H   0  0  0  0  0  0  0  0  0  0  0  0
    0.5150   10.3220   23.6540 H   0  0  0  0  0  0  0  0  0  0  0  0
   -1.3310    7.5670   21.1450 H   0  0  0  0  0  0  0  0  0  0  0  0
    7.2380    7.3740   17.5100 C   0  0  0  0  0  0  0  0  0  0  0  0
    7.4530    8.6270   17.1700 N   0  0  0  0  0  0  0  0  0  0  0  0
    8.4030    9.0120   18.0800 C   0  0  0  0  0  0  0  0  0  0  0  0
    8.8120    8.0490   18.9150 N   0  0  0  0  0  0  0  0  0  0  0  0
    8.0330    6.9520   18.5400 O   0  0  0  0  0  0  0  0  0  0  0  0
    8.9470   10.3810   18.1280 C   0  0  0  0  0  0  0  0  0  0  0  0
    8.4330   10.9800   18.8860 H   0  0  0  0  0  0  0  0  0  0  0  0
   10.0130   10.3590   18.3770 H   0  0  0  0  0  0  0  0  0  0  0  0
    8.8260   10.8830   17.1630 H   0  0  0  0  0  0  0  0  0  0  0  0
    5.2370    3.9670   15.4810 O   0  0  0  0  0  0  0  0  0  0  0  0
    6.0680    4.0050   14.3270 C   0  0  0  0  0  0  0  0  0  0  0  0
    6.8890    3.2860   14.4090 H   0  0  0  0  0  0  0  0  0  0  0  0
    6.4950    5.0090   14.2460 H   0  0  0  0  0  0  0  0  0  0  0  0
    5.4810    3.8030   13.4270 H   0  0  0  0  0  0  0  0  0  0  0  0
  1  8  1  1  0  0  0
  1  7  1  0  0  0  0
  2  1  1  0  0  0  0
  2  3  1  0  0  0  0
  2  9  1  0  0  0  0
  3 11  1  6  0  0  0
  3 32  1  0  0  0  0
  3  4  1  0  0  0  0
  4  7  1  0  0  0  0
  4  5  1  0  0  0  0
  5 14  1  0  0  0  0
  6  5  2  0  0  0  0
  7 12  1  0  0  0  0
 10  2  1  0  0  0  0
 13  7  1  0  0  0  0
 14 19  1  0  0  0  0
 15 14  2  0  0  0  0
 15 16  1  0  0  0  0
 16 17  2  0  0  0  0
 17 18  1  0  0  0  0
 17 22  1  0  0  0  0
 18 24  1  0  0  0  0
 19 18  2  0  0  0  0
 20 15  1  0  0  0  0
 21 16  1  0  0  0  0
 23 19  1  0  0  0  0
 24 28  1  0  0  0  0
 24 25  1  0  0  0  0
 25 29  1  0  0  0  0
 25 26  2  0  0  0  0
 26 30  1  0  0  0  0
 27 26  1  0  0  0  0
 28 27  2  0  0  0  0
 31 28  1  0  0  0  0
 32 36  1  0  0  0  0
 33 32  2  0  0  0  0
 33 34  1  0  0  0  0
 34 37  1  0  0  0  0
 34 35  2  0  0  0  0
 36 35  1  0  0  0  0
 37 39  1  0  0  0  0
 37 38  1  0  0  0  0
 40 37  1  0  0  0  0
 41  1  1  0  0  0  0
 42 43  1  0  0  0  0
 42 41  1  0  0  0  0
 44 42  1  0  0  0  0
 45 42  1  0  0  0  0
M  END
>  <MODEL>
18

>  <REMARK>
 VINA RESULT:    -5.857      3.009      4.425
 INTER + INTRA:          -7.355
 INTER:                  -7.563
 INTRA:                   0.208
 UNBOUND:                 0.214
  Name = 
  6 active torsions:
  status: ('A' for Active; 'I' for Inactive)
    1  A    between atoms: C_1  and  O_2
    2  A    between atoms: O_2  and  C_3
    3  A    between atoms: C_5  and  C_6
    4  A    between atoms: C_8  and  C_9
    5  A    between atoms: C_13  and  C_15
    6  A    between atoms: C_19  and  N_20
                            x       y       z     vdW  Elec       q    Type
                         _______ _______ _______ _____ _____    ______ ____

>  <TORSDO>
F 6

$$$$
=
 OpenBabel07192307433D

 45 48  0  0  1  0  0  0  0  0999 V2000
   -0.1780    9.4170   22.0220 C   0  0  1  0  0  0  0  0  0  0  0  0
   -0.9570   10.3180   21.0700 C   0  0  0  0  0  0  0  0  0  0  0  0
   -0.0790   10.3390   19.8120 C   0  0  1  0  0  0  0  0  0  0  0  0
    0.5760    9.0290   19.8020 N   0  0  0  0  0  0  0  0  0  0  0  0
    1.6150    8.7870   18.9190 C   0  0  0  0  0  0  0  0  0  0  0  0
    2.0230    9.6180   18.1140 O   0  0  0  0  0  0  0  0  0  0  0  0
    0.3830    8.3450   21.0790 C   0  0  0  0  0  0  0  0  0  0  0  0
   -0.8030    8.9640   22.8000 H   0  0  0  0  0  0  0  0  0  0  0  0
   -1.9360    9.8660   20.8630 H   0  0  0  0  0  0  0  0  0  0  0  0
   -1.1250   11.3310   21.4480 H   0  0  0  0  0  0  0  0  0  0  0  0
    0.6970   11.1090   19.8940 H   0  0  0  0  0  0  0  0  0  0  0  0
   -0.3560    7.5550   20.9110 H   0  0  0  0  0  0  0  0  0  0  0  0
    1.3210    7.9160   21.4430 H   0  0  0  0  0  0  0  0  0  0  0  0
    2.2550    7.4510   18.9400 C   0  0  0  0  0  0  0  0  0  0  0  0
    2.0630    6.6340   20.0550 C   0  0  0  0  0  0  0  0  0  0  0  0
    2.6660    5.3790   20.0970 C   0  0  0  0  0  0  0  0  0  0  0  0
    3.4700    4.9480   19.0360 C   0  0  0  0  0  0  0  0  0  0  0  0
    3.6910    5.7760   17.9240 C   0  0  0  0  0  0  0  0  0  0  0  0
    3.0810    7.0380   17.8850 C   0  0  0  0  0  0  0  0  0  0  0  0
    1.4480    6.9740   20.8860 H   0  0  0  0  0  0  0  0  0  0  0  0
    2.5170    4.7370   20.9620 H   0  0  0  0  0  0  0  0  0  0  0  0
    3.9200    3.9620   19.1270 H   0  0  0  0  0  0  0  0  0  0  0  0
    3.2400    7.7310   17.0650 H   0  0  0  0  0  0  0  0  0  0  0  0
    4.5260    5.3440   16.8490 N   0  0  0  0  0  0  0  0  0  0  0  0
    4.8650    4.0490   16.5200 C   0  0  0  0  0  0  0  0  0  0  0  0
    5.6920    4.1340   15.4250 C   0  0  0  0  0  0  0  0  0  0  0  0
    5.8830    5.4340   15.0630 N   0  0  0  0  0  0  0  0  0  0  0  0
    5.1750    6.1340   15.9220 C   0  0  0  0  0  0  0  0  0  0  0  0
    4.5070    3.1830   17.0550 H   0  0  0  0  0  0  0  0  0  0  0  0
    6.1580    3.3220   14.8800 H   0  0  0  0  0  0  0  0  0  0  0  0
    5.1070    7.2120   15.9080 H   0  0  0  0  0  0  0  0  0  0  0  0
   -0.9110   10.5770   18.5950 C   0  0  0  0  0  0  0  0  0  0  0  0
   -1.4300    9.7090   17.7530 N   0  0  0  0  0  0  0  0  0  0  0  0
   -2.0360   10.5270   16.8350 C   0  0  0  0  0  0  0  0  0  0  0  0
   -1.8680   11.8390   17.0450 N   0  0  0  0  0  0  0  0  0  0  0  0
   -1.1190   11.8770   18.2230 O   0  0  0  0  0  0  0  0  0  0  0  0
   -2.8030   10.0040   15.6910 C   0  0  0  0  0  0  0  0  0  0  0  0
   -3.6730   10.6360   15.4820 H   0  0  0  0  0  0  0  0  0  0  0  0
   -2.1790    9.9790   14.7920 H   0  0  0  0  0  0  0  0  0  0  0  0
   -3.1630    8.9910   15.8920 H   0  0  0  0  0  0  0  0  0  0  0  0
    0.9130   10.1230   22.6200 O   0  0  0  0  0  0  0  0  0  0  0  0
    1.9790    9.2700   23.0170 C   0  0  0  0  0  0  0  0  0  0  0  0
    2.7240    9.8160   23.6010 H   0  0  0  0  0  0  0  0  0  0  0  0
    2.4620    8.8840   22.1140 H   0  0  0  0  0  0  0  0  0  0  0  0
    1.5960    8.4240   23.5940 H   0  0  0  0  0  0  0  0  0  0  0  0
  1 41  1  0  0  0  0
  1  8  1  1  0  0  0
  2 10  1  0  0  0  0
  2  1  1  0  0  0  0
  3 11  1  1  0  0  0
  3  2  1  0  0  0  0
  4  3  1  0  0  0  0
  4  7  1  0  0  0  0
  5 14  1  0  0  0  0
  5  4  1  0  0  0  0
  6  5  2  0  0  0  0
  7 13  1  0  0  0  0
  7  1  1  0  0  0  0
  9  2  1  0  0  0  0
 12  7  1  0  0  0  0
 14 15  1  0  0  0  0
 15 16  2  0  0  0  0
 15 20  1  0  0  0  0
 16 21  1  0  0  0  0
 17 22  1  0  0  0  0
 17 16  1  0  0  0  0
 18 17  2  0  0  0  0
 19 18  1  0  0  0  0
 19 14  2  0  0  0  0
 23 19  1  0  0  0  0
 24 18  1  0  0  0  0
 25 24  1  0  0  0  0
 25 29  1  0  0  0  0
 26 25  2  0  0  0  0
 27 26  1  0  0  0  0
 27 28  2  0  0  0  0
 28 24  1  0  0  0  0
 30 26  1  0  0  0  0
 31 28  1  0  0  0  0
 32  3  1  0  0  0  0
 33 32  2  0  0  0  0
 34 35  2  0  0  0  0
 34 33  1  0  0  0  0
 35 36  1  0  0  0  0
 36 32  1  0  0  0  0
 37 40  1  0  0  0  0
 37 34  1  0  0  0  0
 38 37  1  0  0  0  0
 39 37  1  0  0  0  0
 41 42  1  0  0  0  0
 42 45  1  0  0  0  0
 42 43  1  0  0  0  0
 44 42  1  0  0  0  0
M  END
>  <MODEL>
19

>  <REMARK>
 VINA RESULT:    -5.821      2.746      7.582
 INTER + INTRA:          -7.308
 INTER:                  -7.692
 INTRA:                   0.383
 UNBOUND:                 0.214
  Name = 
  6 active torsions:
  status: ('A' for Active; 'I' for Inactive)
    1  A    between atoms: C_1  and  O_2
    2  A    between atoms: O_2  and  C_3
    3  A    between atoms: C_5  and  C_6
    4  A    between atoms: C_8  and  C_9
    5  A    between atoms: C_13  and  C_15
    6  A    between atoms: C_19  and  N_20
                            x       y       z     vdW  Elec       q    Type
                         _______ _______ _______ _____ _____    ______ ____

>  <TORSDO>
F 6

$$$$
=
 OpenBabel07192307433D

 45 48  0  0  1  0  0  0  0  0999 V2000
    1.9780    2.8950   17.9200 C   0  0  1  0  0  0  0  0  0  0  0  0
    1.3440    3.9050   18.8700 C   0  0  0  0  0  0  0  0  0  0  0  0
    2.5510    4.6810   19.4120 C   0  0  1  0  0  0  0  0  0  0  0  0
    3.5220    4.6580   18.3170 N   0  0  0  0  0  0  0  0  0  0  0  0
    4.8220    5.0780   18.5420 C   0  0  0  0  0  0  0  0  0  0  0  0
    5.2180    5.4920   19.6270 O   0  0  0  0  0  0  0  0  0  0  0  0
    3.1140    3.7070   17.2850 C   0  0  0  0  0  0  0  0  0  0  0  0
    1.2870    2.5250   17.1550 H   0  0  0  0  0  0  0  0  0  0  0  0
    0.6720    4.5630   18.3030 H   0  0  0  0  0  0  0  0  0  0  0  0
    0.7680    3.4540   19.6850 H   0  0  0  0  0  0  0  0  0  0  0  0
    2.9910    4.1610   20.2710 H   0  0  0  0  0  0  0  0  0  0  0  0
    2.7420    4.2920   16.4380 H   0  0  0  0  0  0  0  0  0  0  0  0
    3.9530    3.0790   16.9730 H   0  0  0  0  0  0  0  0  0  0  0  0
    5.7770    5.0370   17.4100 C   0  0  0  0  0  0  0  0  0  0  0  0
    7.0560    5.5640   17.5930 C   0  0  0  0  0  0  0  0  0  0  0  0
    7.9630    5.5440   16.5360 C   0  0  0  0  0  0  0  0  0  0  0  0
    7.5890    5.0140   15.2960 C   0  0  0  0  0  0  0  0  0  0  0  0
    6.2940    4.5080   15.0960 C   0  0  0  0  0  0  0  0  0  0  0  0
    5.3850    4.5290   16.1640 C   0  0  0  0  0  0  0  0  0  0  0  0
    7.3430    5.9890   18.5520 H   0  0  0  0  0  0  0  0  0  0  0  0
    8.9620    5.9520   16.6740 H   0  0  0  0  0  0  0  0  0  0  0  0
    8.3360    5.0310   14.5070 H   0  0  0  0  0  0  0  0  0  0  0  0
    4.3630    4.1780   16.0580 H   0  0  0  0  0  0  0  0  0  0  0  0
    5.9060    3.9830   13.8270 N   0  0  0  0  0  0  0  0  0  0  0  0
    6.7290    3.6370   12.7760 C   0  0  0  0  0  0  0  0  0  0  0  0
    5.9030    3.1930   11.7700 C   0  0  0  0  0  0  0  0  0  0  0  0
    4.5970    3.2540   12.1550 N   0  0  0  0  0  0  0  0  0  0  0  0
    4.6260    3.7210   13.3840 C   0  0  0  0  0  0  0  0  0  0  0  0
    7.8050    3.7160   12.8080 H   0  0  0  0  0  0  0  0  0  0  0  0
    6.1870    2.8320   10.7890 H   0  0  0  0  0  0  0  0  0  0  0  0
    3.7440    3.8870   13.9850 H   0  0  0  0  0  0  0  0  0  0  0  0
    2.1530    6.0660   19.8010 C   0  0  0  0  0  0  0  0  0  0  0  0
    1.5940    6.4950   20.9130 N   0  0  0  0  0  0  0  0  0  0  0  0
    1.4360    7.8320   20.6570 C   0  0  0  0  0  0  0  0  0  0  0  0
    1.8170    8.2260   19.4360 N   0  0  0  0  0  0  0  0  0  0  0  0
    2.3010    7.0490   18.8610 O   0  0  0  0  0  0  0  0  0  0  0  0
    0.8720    8.7680   21.6460 C   0  0  0  0  0  0  0  0  0  0  0  0
    0.3440    9.5900   21.1510 H   0  0  0  0  0  0  0  0  0  0  0  0
    0.1610    8.2520   22.2980 H   0  0  0  0  0  0  0  0  0  0  0  0
    1.6610    9.2010   22.2680 H   0  0  0  0  0  0  0  0  0  0  0  0
    2.5430    1.7970   18.6420 O   0  0  0  0  0  0  0  0  0  0  0  0
    3.8120    1.3950   18.1430 C   0  0  0  0  0  0  0  0  0  0  0  0
    4.3850    2.2550   17.7850 H   0  0  0  0  0  0  0  0  0  0  0  0
    3.6490    0.7150   17.3020 H   0  0  0  0  0  0  0  0  0  0  0  0
    4.3750    0.8630   18.9150 H   0  0  0  0  0  0  0  0  0  0  0  0
  1  8  1  6  0  0  0
  1 41  1  0  0  0  0
  1  2  1  0  0  0  0
  2  3  1  0  0  0  0
  2 10  1  0  0  0  0
  3 32  1  0  0  0  0
  3 11  1  1  0  0  0
  4  5  1  0  0  0  0
  4  3  1  0  0  0  0
  5  6  2  0  0  0  0
  7  1  1  0  0  0  0
  7  4  1  0  0  0  0
  9  2  1  0  0  0  0
 12  7  1  0  0  0  0
 13  7  1  0  0  0  0
 14 15  1  0  0  0  0
 14  5  1  0  0  0  0
 15 20  1  0  0  0  0
 16 21  1  0  0  0  0
 16 15  2  0  0  0  0
 17 16  1  0  0  0  0
 18 17  2  0  0  0  0
 18 19  1  0  0  0  0
 19 14  2  0  0  0  0
 22 17  1  0  0  0  0
 23 19  1  0  0  0  0
 24 18  1  0  0  0  0
 25 29  1  0  0  0  0
 25 24  1  0  0  0  0
 26 27  1  0  0  0  0
 26 25  2  0  0  0  0
 27 28  2  0  0  0  0
 28 24  1  0  0  0  0
 28 31  1  0  0  0  0
 30 26  1  0  0  0  0
 32 33  2  0  0  0  0
 34 33  1  0  0  0  0
 34 37  1  0  0  0  0
 35 34  2  0  0  0  0
 36 35  1  0  0  0  0
 36 32  1  0  0  0  0
 37 40  1  0  0  0  0
 37 39  1  0  0  0  0
 38 37  1  0  0  0  0
 42 41  1  0  0  0  0
 42 45  1  0  0  0  0
 43 42  1  0  0  0  0
 44 42  1  0  0  0  0
M  END
>  <MODEL>
20

>  <REMARK>
 VINA RESULT:    -5.807      3.142      7.300
 INTER + INTRA:          -7.291
 INTER:                  -7.611
 INTRA:                   0.319
 UNBOUND:                 0.214
  Name = 
  6 active torsions:
  status: ('A' for Active; 'I' for Inactive)
    1  A    between atoms: C_1  and  O_2
    2  A    between atoms: O_2  and  C_3
    3  A    between atoms: C_5  and  C_6
    4  A    between atoms: C_8  and  C_9
    5  A    between atoms: C_13  and  C_15
    6  A    between atoms: C_19  and  N_20
                            x       y       z     vdW  Elec       q    Type
                         _______ _______ _______ _____ _____    ______ ____

>  <TORSDO>
F 6

$$$$
=
 OpenBabel07192307433D

 45 48  0  0  1  0  0  0  0  0999 V2000
    2.5430    7.7120   19.1890 C   0  0  1  0  0  0  0  0  0  0  0  0
    1.6230    6.7510   19.9340 C   0  0  0  0  0  0  0  0  0  0  0  0
    1.7490    5.4510   19.1270 C   0  0  1  0  0  0  0  0  0  0  0  0
    3.1120    5.4820   18.5950 N   0  0  0  0  0  0  0  0  0  0  0  0
    3.4950    4.5640   17.6320 C   0  0  0  0  0  0  0  0  0  0  0  0
    2.7480    3.6960   17.1940 O   0  0  0  0  0  0  0  0  0  0  0  0
    3.7100    6.8030   18.7800 C   0  0  0  0  0  0  0  0  0  0  0  0
    2.8950    8.5440   19.8100 H   0  0  0  0  0  0  0  0  0  0  0  0
    1.9920    6.6170   20.9590 H   0  0  0  0  0  0  0  0  0  0  0  0
    0.5810    7.0790   19.9890 H   0  0  0  0  0  0  0  0  0  0  0  0
    1.0510    5.4530   18.2810 H   0  0  0  0  0  0  0  0  0  0  0  0
    4.4350    6.7170   19.5950 H   0  0  0  0  0  0  0  0  0  0  0  0
    4.2040    7.1440   17.8660 H   0  0  0  0  0  0  0  0  0  0  0  0
    4.8820    4.6290   17.1150 C   0  0  0  0  0  0  0  0  0  0  0  0
    5.9190    4.8900   18.0110 C   0  0  0  0  0  0  0  0  0  0  0  0
    7.2280    4.9650   17.5410 C   0  0  0  0  0  0  0  0  0  0  0  0
    7.4990    4.7950   16.1790 C   0  0  0  0  0  0  0  0  0  0  0  0
    6.4570    4.5600   15.2670 C   0  0  0  0  0  0  0  0  0  0  0  0
    5.1410    4.4840   15.7450 C   0  0  0  0  0  0  0  0  0  0  0  0
    5.7080    5.0350   19.0680 H   0  0  0  0  0  0  0  0  0  0  0  0
    8.0400    5.1660   18.2360 H   0  0  0  0  0  0  0  0  0  0  0  0
    8.5380    4.8700   15.8690 H   0  0  0  0  0  0  0  0  0  0  0  0
    4.2950    4.3340   15.0820 H   0  0  0  0  0  0  0  0  0  0  0  0
    6.7300    4.4050   13.8750 N   0  0  0  0  0  0  0  0  0  0  0  0
    6.1060    3.5530   12.9880 C   0  0  0  0  0  0  0  0  0  0  0  0
    6.7140    3.7500   11.7710 C   0  0  0  0  0  0  0  0  0  0  0  0
    7.6970    4.6890   11.8680 N   0  0  0  0  0  0  0  0  0  0  0  0
    7.6830    5.0670   13.1280 C   0  0  0  0  0  0  0  0  0  0  0  0
    5.2970    2.8940   13.2620 H   0  0  0  0  0  0  0  0  0  0  0  0
    6.4920    3.2610   10.8300 H   0  0  0  0  0  0  0  0  0  0  0  0
    8.3460    5.8140   13.5380 H   0  0  0  0  0  0  0  0  0  0  0  0
    1.4960    4.2660   19.9980 C   0  0  0  0  0  0  0  0  0  0  0  0
    1.9300    4.0140   21.2150 N   0  0  0  0  0  0  0  0  0  0  0  0
    1.4040    2.7710   21.4550 C   0  0  0  0  0  0  0  0  0  0  0  0
    0.7230    2.2360   20.4350 N   0  0  0  0  0  0  0  0  0  0  0  0
    0.7780    3.2340   19.4590 O   0  0  0  0  0  0  0  0  0  0  0  0
    1.5880    2.0660   22.7370 C   0  0  0  0  0  0  0  0  0  0  0  0
    1.6420    2.7750   23.5690 H   0  0  0  0  0  0  0  0  0  0  0  0
    0.7490    1.3870   22.9220 H   0  0  0  0  0  0  0  0  0  0  0  0
    2.5130    1.4810   22.7310 H   0  0  0  0  0  0  0  0  0  0  0  0
    1.9120    8.2150   18.0080 O   0  0  0  0  0  0  0  0  0  0  0  0
    2.1530    9.6000   17.7940 C   0  0  0  0  0  0  0  0  0  0  0  0
    3.0050    9.7530   17.1250 H   0  0  0  0  0  0  0  0  0  0  0  0
    2.3850   10.0600   18.7590 H   0  0  0  0  0  0  0  0  0  0  0  0
    1.2620   10.0830   17.3840 H   0  0  0  0  0  0  0  0  0  0  0  0
  1  8  1  1  0  0  0
  1  2  1  0  0  0  0
  2 10  1  0  0  0  0
  2  9  1  0  0  0  0
  3 11  1  6  0  0  0
  3  2  1  0  0  0  0
  3 32  1  0  0  0  0
  4  7  1  0  0  0  0
  4  3  1  0  0  0  0
  5  4  1  0  0  0  0
  6  5  2  0  0  0  0
  7  1  1  0  0  0  0
  7 12  1  0  0  0  0
 13  7  1  0  0  0  0
 14  5  1  0  0  0  0
 14 15  1  0  0  0  0
 15 20  1  0  0  0  0
 16 15  2  0  0  0  0
 16 21  1  0  0  0  0
 17 16  1  0  0  0  0
 18 19  1  0  0  0  0
 18 17  2  0  0  0  0
 19 14  2  0  0  0  0
 22 17  1  0  0  0  0
 23 19  1  0  0  0  0
 24 18  1  0  0  0  0
 25 29  1  0  0  0  0
 25 24  1  0  0  0  0
 26 27  1  0  0  0  0
 26 25  2  0  0  0  0
 27 28  2  0  0  0  0
 28 31  1  0  0  0  0
 28 24  1  0  0  0  0
 30 26  1  0  0  0  0
 32 33  2  0  0  0  0
 33 34  1  0  0  0  0
 34 37  1  0  0  0  0
 35 34  2  0  0  0  0
 36 32  1  0  0  0  0
 36 35  1  0  0  0  0
 37 39  1  0  0  0  0
 37 38  1  0  0  0  0
 40 37  1  0  0  0  0
 41  1  1  0  0  0  0
 42 41  1  0  0  0  0
 42 44  1  0  0  0  0
 43 42  1  0  0  0  0
 45 42  1  0  0  0  0
M  END
>  <MODEL>
21

>  <REMARK>
 VINA RESULT:    -5.704      3.098      7.624
 INTER + INTRA:          -7.157
 INTER:                  -6.977
 INTRA:                  -0.181
 UNBOUND:                 0.214
  Name = 
  6 active torsions:
  status: ('A' for Active; 'I' for Inactive)
    1  A    between atoms: C_1  and  O_2
    2  A    between atoms: O_2  and  C_3
    3  A    between atoms: C_5  and  C_6
    4  A    between atoms: C_8  and  C_9
    5  A    between atoms: C_13  and  C_15
    6  A    between atoms: C_19  and  N_20
                            x       y       z     vdW  Elec       q    Type
                         _______ _______ _______ _____ _____    ______ ____

>  <TORSDO>
F 6

$$$$
=
 OpenBabel07192307433D

 45 48  0  0  1  0  0  0  0  0999 V2000
    1.9420    5.2860   20.4920 C   0  0  1  0  0  0  0  0  0  0  0  0
    3.3560    4.9220   20.0540 C   0  0  0  0  0  0  0  0  0  0  0  0
    3.5500    5.7510   18.7780 C   0  0  1  0  0  0  0  0  0  0  0  0
    2.7360    6.9490   18.9920 N   0  0  0  0  0  0  0  0  0  0  0  0
    2.5020    7.8180   17.9400 C   0  0  0  0  0  0  0  0  0  0  0  0
    2.9560    7.6490   16.8130 O   0  0  0  0  0  0  0  0  0  0  0  0
    1.8630    6.7790   20.1520 C   0  0  0  0  0  0  0  0  0  0  0  0
    1.7610    5.1190   21.5600 H   0  0  0  0  0  0  0  0  0  0  0  0
    4.0660    5.2250   20.8350 H   0  0  0  0  0  0  0  0  0  0  0  0
    3.5040    3.8560   19.8570 H   0  0  0  0  0  0  0  0  0  0  0  0
    3.1510    5.2170   17.9060 H   0  0  0  0  0  0  0  0  0  0  0  0
    2.2850    7.3820   20.9630 H   0  0  0  0  0  0  0  0  0  0  0  0
    0.8430    7.1050   19.9280 H   0  0  0  0  0  0  0  0  0  0  0  0
    1.6720    9.0180   18.1950 C   0  0  0  0  0  0  0  0  0  0  0  0
    0.2920    8.9310   18.0070 C   0  0  0  0  0  0  0  0  0  0  0  0
   -0.5030   10.0520   18.2310 C   0  0  0  0  0  0  0  0  0  0  0  0
    0.0800   11.2610   18.6270 C   0  0  0  0  0  0  0  0  0  0  0  0
    1.4710   11.3640   18.7920 C   0  0  0  0  0  0  0  0  0  0  0  0
    2.2670   10.2320   18.5660 C   0  0  0  0  0  0  0  0  0  0  0  0
   -0.1600    7.9950   17.6850 H   0  0  0  0  0  0  0  0  0  0  0  0
   -1.5790    9.9890   18.0880 H   0  0  0  0  0  0  0  0  0  0  0  0
   -0.5890   12.1040   18.7820 H   0  0  0  0  0  0  0  0  0  0  0  0
    3.3490   10.2620   18.6490 H   0  0  0  0  0  0  0  0  0  0  0  0
    2.0680   12.6010   19.1800 N   0  0  0  0  0  0  0  0  0  0  0  0
    2.7970   13.4640   18.3890 C   0  0  0  0  0  0  0  0  0  0  0  0
    3.1720   14.5090   19.2010 C   0  0  0  0  0  0  0  0  0  0  0  0
    2.7070   14.3250   20.4690 N   0  0  0  0  0  0  0  0  0  0  0  0
    2.0490   13.1870   20.4290 C   0  0  0  0  0  0  0  0  0  0  0  0
    2.9900   13.2960   17.3410 H   0  0  0  0  0  0  0  0  0  0  0  0
    3.7530   15.3830   18.9340 H   0  0  0  0  0  0  0  0  0  0  0  0
    1.5480   12.7520   21.2810 H   0  0  0  0  0  0  0  0  0  0  0  0
    4.9950    6.0640   18.5690 C   0  0  0  0  0  0  0  0  0  0  0  0
    5.5560    6.9020   17.7240 N   0  0  0  0  0  0  0  0  0  0  0  0
    6.8900    6.7120   17.9740 C   0  0  0  0  0  0  0  0  0  0  0  0
    7.1680    5.7700   18.8840 N   0  0  0  0  0  0  0  0  0  0  0  0
    5.9040    5.3360   19.2870 O   0  0  0  0  0  0  0  0  0  0  0  0
    7.9440    7.4760   17.2830 C   0  0  0  0  0  0  0  0  0  0  0  0
    8.9040    6.9530   17.3350 H   0  0  0  0  0  0  0  0  0  0  0  0
    7.6870    7.6110   16.2270 H   0  0  0  0  0  0  0  0  0  0  0  0
    8.0720    8.4630   17.7380 H   0  0  0  0  0  0  0  0  0  0  0  0
    0.9680    4.5830   19.7150 O   0  0  0  0  0  0  0  0  0  0  0  0
    0.9350    3.1880   19.9920 C   0  0  0  0  0  0  0  0  0  0  0  0
    0.2660    2.9680   20.8290 H   0  0  0  0  0  0  0  0  0  0  0  0
    1.9460    2.8700   20.2640 H   0  0  0  0  0  0  0  0  0  0  0  0
    0.6230    2.6300   19.1050 H   0  0  0  0  0  0  0  0  0  0  0  0
  1  8  1  1  0  0  0
  2  1  1  0  0  0  0
  2  9  1  0  0  0  0
  3 11  1  6  0  0  0
  3  4  1  0  0  0  0
  3  2  1  0  0  0  0
  4  7  1  0  0  0  0
  5 14  1  0  0  0  0
  5  4  1  0  0  0  0
  6  5  2  0  0  0  0
  7  1  1  0  0  0  0
  7 12  1  0  0  0  0
 10  2  1  0  0  0  0
 13  7  1  0  0  0  0
 14 19  1  0  0  0  0
 15 14  2  0  0  0  0
 15 16  1  0  0  0  0
 16 17  2  0  0  0  0
 17 22  1  0  0  0  0
 17 18  1  0  0  0  0
 18 24  1  0  0  0  0
 19 23  1  0  0  0  0
 19 18  2  0  0  0  0
 20 15  1  0  0  0  0
 21 16  1  0  0  0  0
 24 28  1  0  0  0  0
 25 24  1  0  0  0  0
 25 26  2  0  0  0  0
 26 27  1  0  0  0  0
 28 27  2  0  0  0  0
 28 31  1  0  0  0  0
 29 25  1  0  0  0  0
 30 26  1  0  0  0  0
 32  3  1  0  0  0  0
 32 36  1  0  0  0  0
 33 34  1  0  0  0  0
 33 32  2  0  0  0  0
 34 35  2  0  0  0  0
 35 36  1  0  0  0  0
 37 38  1  0  0  0  0
 37 40  1  0  0  0  0
 37 34  1  0  0  0  0
 39 37  1  0  0  0  0
 41 42  1  0  0  0  0
 41  1  1  0  0  0  0
 42 44  1  0  0  0  0
 42 43  1  0  0  0  0
 45 42  1  0  0  0  0
M  END
>  <MODEL>
22

>  <REMARK>
 VINA RESULT:    -5.672      1.859      2.470
 INTER + INTRA:          -7.116
 INTER:                  -7.023
 INTRA:                  -0.092
 UNBOUND:                 0.214
  Name = 
  6 active torsions:
  status: ('A' for Active; 'I' for Inactive)
    1  A    between atoms: C_1  and  O_2
    2  A    between atoms: O_2  and  C_3
    3  A    between atoms: C_5  and  C_6
    4  A    between atoms: C_8  and  C_9
    5  A    between atoms: C_13  and  C_15
    6  A    between atoms: C_19  and  N_20
                            x       y       z     vdW  Elec       q    Type
                         _______ _______ _______ _____ _____    ______ ____

>  <TORSDO>
F 6

$$$$
=
 OpenBabel07192307433D

 45 48  0  0  1  0  0  0  0  0999 V2000
   -2.3370   10.7240   18.0580 C   0  0  1  0  0  0  0  0  0  0  0  0
   -1.3290    9.6290   17.7260 C   0  0  0  0  0  0  0  0  0  0  0  0
    0.0180   10.2810   18.0620 C   0  0  1  0  0  0  0  0  0  0  0  0
   -0.2860   11.2040   19.1580 N   0  0  0  0  0  0  0  0  0  0  0  0
    0.6640   12.1260   19.5640 C   0  0  0  0  0  0  0  0  0  0  0  0
    1.7790   12.2120   19.0580 O   0  0  0  0  0  0  0  0  0  0  0  0
   -1.7300   11.3620   19.3140 C   0  0  0  0  0  0  0  0  0  0  0  0
   -3.3430   10.3400   18.2620 H   0  0  0  0  0  0  0  0  0  0  0  0
   -1.5170    8.7570   18.3640 H   0  0  0  0  0  0  0  0  0  0  0  0
   -1.3550    9.2980   16.6830 H   0  0  0  0  0  0  0  0  0  0  0  0
    0.3870   10.8690   17.2120 H   0  0  0  0  0  0  0  0  0  0  0  0
   -2.0200   10.8020   20.2090 H   0  0  0  0  0  0  0  0  0  0  0  0
   -2.0020   12.4160   19.4210 H   0  0  0  0  0  0  0  0  0  0  0  0
    0.3190   13.0440   20.6740 C   0  0  0  0  0  0  0  0  0  0  0  0
    1.1410   14.1460   20.9130 C   0  0  0  0  0  0  0  0  0  0  0  0
    0.8380   15.0130   21.9600 C   0  0  0  0  0  0  0  0  0  0  0  0
   -0.2740   14.7730   22.7750 C   0  0  0  0  0  0  0  0  0  0  0  0
   -1.0900   13.6500   22.5580 C   0  0  0  0  0  0  0  0  0  0  0  0
   -0.7810   12.7810   21.5020 C   0  0  0  0  0  0  0  0  0  0  0  0
    2.0140   14.3250   20.2890 H   0  0  0  0  0  0  0  0  0  0  0  0
    1.4740   15.8740   22.1490 H   0  0  0  0  0  0  0  0  0  0  0  0
   -0.4580   15.4790   23.5800 H   0  0  0  0  0  0  0  0  0  0  0  0
   -1.3590   11.8830   21.3070 H   0  0  0  0  0  0  0  0  0  0  0  0
   -2.2140   13.3950   23.3990 N   0  0  0  0  0  0  0  0  0  0  0  0
   -2.9940   12.2580   23.4340 C   0  0  0  0  0  0  0  0  0  0  0  0
   -3.9570   12.4790   24.3900 C   0  0  0  0  0  0  0  0  0  0  0  0
   -3.8070   13.7140   24.9490 N   0  0  0  0  0  0  0  0  0  0  0  0
   -2.7610   14.2360   24.3470 C   0  0  0  0  0  0  0  0  0  0  0  0
   -2.8200   11.3950   22.8100 H   0  0  0  0  0  0  0  0  0  0  0  0
   -4.7490   11.8100   24.7030 H   0  0  0  0  0  0  0  0  0  0  0  0
   -2.3700   15.2180   24.5660 H   0  0  0  0  0  0  0  0  0  0  0  0
    1.0230    9.2450   18.4420 C   0  0  0  0  0  0  0  0  0  0  0  0
    1.8450    8.5570   17.6780 N   0  0  0  0  0  0  0  0  0  0  0  0
    2.4710    7.7450   18.5890 C   0  0  0  0  0  0  0  0  0  0  0  0
    2.0370    7.8660   19.8490 N   0  0  0  0  0  0  0  0  0  0  0  0
    1.0710    8.8700   19.7570 O   0  0  0  0  0  0  0  0  0  0  0  0
    3.5330    6.7970   18.2080 C   0  0  0  0  0  0  0  0  0  0  0  0
    4.4170    7.3270   17.8410 H   0  0  0  0  0  0  0  0  0  0  0  0
    3.8320    6.1930   19.0710 H   0  0  0  0  0  0  0  0  0  0  0  0
    3.1900    6.1240   17.4160 H   0  0  0  0  0  0  0  0  0  0  0  0
   -2.3890   11.7060   17.0200 O   0  0  0  0  0  0  0  0  0  0  0  0
   -2.8550   11.1840   15.7810 C   0  0  0  0  0  0  0  0  0  0  0  0
   -2.6300   10.1170   15.6950 H   0  0  0  0  0  0  0  0  0  0  0  0
   -2.3410   11.7120   14.9730 H   0  0  0  0  0  0  0  0  0  0  0  0
   -3.9300   11.3510   15.6770 H   0  0  0  0  0  0  0  0  0  0  0  0
  1  8  1  1  0  0  0
  1  7  1  0  0  0  0
  2  1  1  0  0  0  0
  2  3  1  0  0  0  0
  2  9  1  0  0  0  0
  3 11  1  6  0  0  0
  3 32  1  0  0  0  0
  3  4  1  0  0  0  0
  4  7  1  0  0  0  0
  4  5  1  0  0  0  0
  5 14  1  0  0  0  0
  6  5  2  0  0  0  0
  7 13  1  0  0  0  0
  7 12  1  0  0  0  0
 10  2  1  0  0  0  0
 14 15  2  0  0  0  0
 14 19  1  0  0  0  0
 15 16  1  0  0  0  0
 16 21  1  0  0  0  0
 16 17  2  0  0  0  0
 17 22  1  0  0  0  0
 18 17  1  0  0  0  0
 18 24  1  0  0  0  0
 19 18  2  0  0  0  0
 20 15  1  0  0  0  0
 23 19  1  0  0  0  0
 24 25  1  0  0  0  0
 24 28  1  0  0  0  0
 25 26  2  0  0  0  0
 26 30  1  0  0  0  0
 26 27  1  0  0  0  0
 28 31  1  0  0  0  0
 28 27  2  0  0  0  0
 29 25  1  0  0  0  0
 32 36  1  0  0  0  0
 33 32  2  0  0  0  0
 33 34  1  0  0  0  0
 34 35  2  0  0  0  0
 36 35  1  0  0  0  0
 37 34  1  0  0  0  0
 37 39  1  0  0  0  0
 38 37  1  0  0  0  0
 40 37  1  0  0  0  0
 41  1  1  0  0  0  0
 42 41  1  0  0  0  0
 43 42  1  0  0  0  0
 44 42  1  0  0  0  0
 45 42  1  0  0  0  0
M  END
>  <MODEL>
23

>  <REMARK>
 VINA RESULT:    -5.608      3.815      6.522
 INTER + INTRA:          -7.034
 INTER:                  -7.052
 INTRA:                   0.018
 UNBOUND:                 0.214
  Name = 
  6 active torsions:
  status: ('A' for Active; 'I' for Inactive)
    1  A    between atoms: C_1  and  O_2
    2  A    between atoms: O_2  and  C_3
    3  A    between atoms: C_5  and  C_6
    4  A    between atoms: C_8  and  C_9
    5  A    between atoms: C_13  and  C_15
    6  A    between atoms: C_19  and  N_20
                            x       y       z     vdW  Elec       q    Type
                         _______ _______ _______ _____ _____    ______ ____

>  <TORSDO>
F 6

$$$$
=
 OpenBabel07192307433D

 45 48  0  0  1  0  0  0  0  0999 V2000
    0.6490    9.8330   21.0410 C   0  0  1  0  0  0  0  0  0  0  0  0
   -0.6580    9.6410   20.2810 C   0  0  0  0  0  0  0  0  0  0  0  0
   -1.0200   11.0650   19.8410 C   0  0  1  0  0  0  0  0  0  0  0  0
    0.2720   11.7310   19.6620 N   0  0  0  0  0  0  0  0  0  0  0  0
    0.3190   13.1030   19.4790 C   0  0  0  0  0  0  0  0  0  0  0  0
   -0.6810   13.8130   19.4450 O   0  0  0  0  0  0  0  0  0  0  0  0
    1.3530   10.9210   20.2200 C   0  0  0  0  0  0  0  0  0  0  0  0
    1.2600    8.9250   21.0910 H   0  0  0  0  0  0  0  0  0  0  0  0
   -0.4810    8.9910   19.4140 H   0  0  0  0  0  0  0  0  0  0  0  0
   -1.4630    9.1980   20.8770 H   0  0  0  0  0  0  0  0  0  0  0  0
   -1.5670   11.5880   20.6350 H   0  0  0  0  0  0  0  0  0  0  0  0
    1.8910   10.4770   19.3760 H   0  0  0  0  0  0  0  0  0  0  0  0
    2.0310   11.5300   20.8250 H   0  0  0  0  0  0  0  0  0  0  0  0
    1.6440   13.7400   19.3030 C   0  0  0  0  0  0  0  0  0  0  0  0
    2.0660   14.0650   18.0130 C   0  0  0  0  0  0  0  0  0  0  0  0
    3.3140   14.6540   17.8280 C   0  0  0  0  0  0  0  0  0  0  0  0
    4.1450   14.9050   18.9260 C   0  0  0  0  0  0  0  0  0  0  0  0
    3.7390   14.5560   20.2240 C   0  0  0  0  0  0  0  0  0  0  0  0
    2.4810   13.9640   20.4050 C   0  0  0  0  0  0  0  0  0  0  0  0
    1.4270   13.8570   17.1580 H   0  0  0  0  0  0  0  0  0  0  0  0
    3.6470   14.9110   16.8250 H   0  0  0  0  0  0  0  0  0  0  0  0
    5.1100   15.3620   18.7200 H   0  0  0  0  0  0  0  0  0  0  0  0
    2.1290   13.6460   21.3820 H   0  0  0  0  0  0  0  0  0  0  0  0
    4.5930   14.7950   21.3420 N   0  0  0  0  0  0  0  0  0  0  0  0
    5.9670   14.9120   21.3380 C   0  0  0  0  0  0  0  0  0  0  0  0
    6.3400   15.1270   22.6440 C   0  0  0  0  0  0  0  0  0  0  0  0
    5.2490   15.1440   23.4610 N   0  0  0  0  0  0  0  0  0  0  0  0
    4.2220   14.9500   22.6630 C   0  0  0  0  0  0  0  0  0  0  0  0
    6.5700   14.8470   20.4460 H   0  0  0  0  0  0  0  0  0  0  0  0
    7.3400   15.2710   23.0350 H   0  0  0  0  0  0  0  0  0  0  0  0
    3.1970   14.9130   23.0000 H   0  0  0  0  0  0  0  0  0  0  0  0
   -1.8340   11.0380   18.5910 C   0  0  0  0  0  0  0  0  0  0  0  0
   -1.5440   10.5230   17.4140 N   0  0  0  0  0  0  0  0  0  0  0  0
   -2.6520   10.8510   16.6770 C   0  0  0  0  0  0  0  0  0  0  0  0
   -3.5700   11.5800   17.3240 N   0  0  0  0  0  0  0  0  0  0  0  0
   -3.0290   11.7040   18.6050 O   0  0  0  0  0  0  0  0  0  0  0  0
   -2.8160   10.4470   15.2690 C   0  0  0  0  0  0  0  0  0  0  0  0
   -3.4670    9.5710   15.1870 H   0  0  0  0  0  0  0  0  0  0  0  0
   -3.2650   11.2590   14.6890 H   0  0  0  0  0  0  0  0  0  0  0  0
   -1.8510   10.1920   14.8210 H   0  0  0  0  0  0  0  0  0  0  0  0
    0.4070   10.3340   22.3600 O   0  0  0  0  0  0  0  0  0  0  0  0
   -0.3420    9.4350   23.1680 C   0  0  0  0  0  0  0  0  0  0  0  0
    0.2830    8.6120   23.5260 H   0  0  0  0  0  0  0  0  0  0  0  0
   -1.1480    9.0170   22.5580 H   0  0  0  0  0  0  0  0  0  0  0  0
   -0.7860    9.9640   24.0150 H   0  0  0  0  0  0  0  0  0  0  0  0
  1  8  1  1  0  0  0
  1 41  1  0  0  0  0
  2 10  1  0  0  0  0
  2  1  1  0  0  0  0
  3  2  1  0  0  0  0
  3 11  1  1  0  0  0
  4  3  1  0  0  0  0
  4  7  1  0  0  0  0
  5  4  1  0  0  0  0
  6  5  2  0  0  0  0
  7 13  1  0  0  0  0
  7  1  1  0  0  0  0
  9  2  1  0  0  0  0
 12  7  1  0  0  0  0
 14  5  1  0  0  0  0
 14 19  1  0  0  0  0
 15 14  2  0  0  0  0
 16 15  1  0  0  0  0
 16 17  2  0  0  0  0
 17 18  1  0  0  0  0
 18 19  2  0  0  0  0
 18 24  1  0  0  0  0
 19 23  1  0  0  0  0
 20 15  1  0  0  0  0
 21 16  1  0  0  0  0
 22 17  1  0  0  0  0
 24 28  1  0  0  0  0
 25 24  1  0  0  0  0
 25 26  2  0  0  0  0
 26 30  1  0  0  0  0
 26 27  1  0  0  0  0
 28 31  1  0  0  0  0
 28 27  2  0  0  0  0
 29 25  1  0  0  0  0
 32 36  1  0  0  0  0
 32  3  1  0  0  0  0
 33 32  2  0  0  0  0
 34 35  2  0  0  0  0
 34 33  1  0  0  0  0
 35 36  1  0  0  0  0
 37 34  1  0  0  0  0
 38 37  1  0  0  0  0
 39 37  1  0  0  0  0
 40 37  1  0  0  0  0
 41 42  1  0  0  0  0
 42 43  1  0  0  0  0
 42 45  1  0  0  0  0
 44 42  1  0  0  0  0
M  END
>  <MODEL>
24

>  <REMARK>
 VINA RESULT:    -5.577      5.624      8.085
 INTER + INTRA:          -6.993
 INTER:                  -6.360
 INTRA:                  -0.633
 UNBOUND:                 0.214
  Name = 
  6 active torsions:
  status: ('A' for Active; 'I' for Inactive)
    1  A    between atoms: C_1  and  O_2
    2  A    between atoms: O_2  and  C_3
    3  A    between atoms: C_5  and  C_6
    4  A    between atoms: C_8  and  C_9
    5  A    between atoms: C_13  and  C_15
    6  A    between atoms: C_19  and  N_20
                            x       y       z     vdW  Elec       q    Type
                         _______ _______ _______ _____ _____    ______ ____

>  <TORSDO>
F 6

$$$$
=
 OpenBabel07192307433D

 45 48  0  0  1  0  0  0  0  0999 V2000
    0.7800   13.3540   18.9790 C   0  0  1  0  0  0  0  0  0  0  0  0
    1.7150   12.2110   19.3600 C   0  0  0  0  0  0  0  0  0  0  0  0
    0.7550   11.0390   19.5970 C   0  0  1  0  0  0  0  0  0  0  0  0
   -0.3620   11.2910   18.6850 N   0  0  0  0  0  0  0  0  0  0  0  0
   -1.5220   10.5420   18.7950 C   0  0  0  0  0  0  0  0  0  0  0  0
   -1.6720    9.6490   19.6220 O   0  0  0  0  0  0  0  0  0  0  0  0
   -0.2850   12.6430   18.1340 C   0  0  0  0  0  0  0  0  0  0  0  0
    1.2730   14.1440   18.4010 H   0  0  0  0  0  0  0  0  0  0  0  0
    2.3940   12.0040   18.5220 H   0  0  0  0  0  0  0  0  0  0  0  0
    2.3230   12.4070   20.2490 H   0  0  0  0  0  0  0  0  0  0  0  0
    0.3690   11.0560   20.6240 H   0  0  0  0  0  0  0  0  0  0  0  0
    0.0480   12.5480   17.0960 H   0  0  0  0  0  0  0  0  0  0  0  0
   -1.2560   13.1430   18.1780 H   0  0  0  0  0  0  0  0  0  0  0  0
   -2.6320   10.8290   17.8560 C   0  0  0  0  0  0  0  0  0  0  0  0
   -3.7590   11.4980   18.3340 C   0  0  0  0  0  0  0  0  0  0  0  0
   -4.8160   11.7650   17.4690 C   0  0  0  0  0  0  0  0  0  0  0  0
   -4.7550   11.3530   16.1330 C   0  0  0  0  0  0  0  0  0  0  0  0
   -3.6360   10.6540   15.6510 C   0  0  0  0  0  0  0  0  0  0  0  0
   -2.5740   10.3880   16.5260 C   0  0  0  0  0  0  0  0  0  0  0  0
   -3.8130   11.8070   19.3760 H   0  0  0  0  0  0  0  0  0  0  0  0
   -5.6960   12.2890   17.8360 H   0  0  0  0  0  0  0  0  0  0  0  0
   -5.6120   11.5840   15.5050 H   0  0  0  0  0  0  0  0  0  0  0  0
   -1.6980    9.8270   16.2160 H   0  0  0  0  0  0  0  0  0  0  0  0
   -3.5800   10.2180   14.2930 N   0  0  0  0  0  0  0  0  0  0  0  0
   -4.6020   10.2240   13.3670 C   0  0  0  0  0  0  0  0  0  0  0  0
   -4.0770    9.7030   12.2090 C   0  0  0  0  0  0  0  0  0  0  0  0
   -2.7670    9.3670   12.3810 N   0  0  0  0  0  0  0  0  0  0  0  0
   -2.4940    9.6890   13.6260 C   0  0  0  0  0  0  0  0  0  0  0  0
   -5.5950   10.5910   13.5760 H   0  0  0  0  0  0  0  0  0  0  0  0
   -4.5790    9.5530   11.2610 H   0  0  0  0  0  0  0  0  0  0  0  0
   -1.5250    9.5520   14.0830 H   0  0  0  0  0  0  0  0  0  0  0  0
    1.4370    9.7390   19.3280 C   0  0  0  0  0  0  0  0  0  0  0  0
    2.0190    9.3110   18.2270 N   0  0  0  0  0  0  0  0  0  0  0  0
    2.4110    8.0470   18.5830 C   0  0  0  0  0  0  0  0  0  0  0  0
    2.0530    7.6670   19.8150 N   0  0  0  0  0  0  0  0  0  0  0  0
    1.4040    8.7960   20.3190 O   0  0  0  0  0  0  0  0  0  0  0  0
    3.1580    7.1620   17.6710 C   0  0  0  0  0  0  0  0  0  0  0  0
    3.0810    7.5110   16.6360 H   0  0  0  0  0  0  0  0  0  0  0  0
    4.2180    7.1400   17.9440 H   0  0  0  0  0  0  0  0  0  0  0  0
    2.7680    6.1400   17.7120 H   0  0  0  0  0  0  0  0  0  0  0  0
    0.1540   13.9130   20.1370 O   0  0  0  0  0  0  0  0  0  0  0  0
   -0.6750   15.0290   19.8390 C   0  0  0  0  0  0  0  0  0  0  0  0
   -1.5510   14.7250   19.2600 H   0  0  0  0  0  0  0  0  0  0  0  0
   -0.0930   15.7370   19.2410 H   0  0  0  0  0  0  0  0  0  0  0  0
   -0.9880   15.5280   20.7600 H   0  0  0  0  0  0  0  0  0  0  0  0
  1  8  1  6  0  0  0
  1  2  1  0  0  0  0
  1 41  1  0  0  0  0
  2  3  1  0  0  0  0
  2 10  1  0  0  0  0
  3 11  1  1  0  0  0
  4  5  1  0  0  0  0
  4  3  1  0  0  0  0
  5  6  2  0  0  0  0
  7 13  1  0  0  0  0
  7  4  1  0  0  0  0
  7  1  1  0  0  0  0
  9  2  1  0  0  0  0
 12  7  1  0  0  0  0
 14 15  1  0  0  0  0
 14  5  1  0  0  0  0
 15 20  1  0  0  0  0
 16 21  1  0  0  0  0
 16 15  2  0  0  0  0
 17 16  1  0  0  0  0
 18 17  2  0  0  0  0
 18 19  1  0  0  0  0
 19 14  2  0  0  0  0
 22 17  1  0  0  0  0
 23 19  1  0  0  0  0
 24 18  1  0  0  0  0
 25 29  1  0  0  0  0
 25 24  1  0  0  0  0
 26 27  1  0  0  0  0
 26 25  2  0  0  0  0
 27 28  2  0  0  0  0
 28 31  1  0  0  0  0
 28 24  1  0  0  0  0
 30 26  1  0  0  0  0
 32  3  1  0  0  0  0
 32 36  1  0  0  0  0
 33 34  1  0  0  0  0
 33 32  2  0  0  0  0
 34 35  2  0  0  0  0
 35 36  1  0  0  0  0
 37 40  1  0  0  0  0
 37 39  1  0  0  0  0
 37 34  1  0  0  0  0
 38 37  1  0  0  0  0
 42 41  1  0  0  0  0
 42 45  1  0  0  0  0
 43 42  1  0  0  0  0
 44 42  1  0  0  0  0
M  END
>  <MODEL>
25

>  <REMARK>
 VINA RESULT:    -5.423      3.826      7.285
 INTER + INTRA:          -6.795
 INTER:                  -5.941
 INTRA:                  -0.854
 UNBOUND:                 0.214
  Name = 
  6 active torsions:
  status: ('A' for Active; 'I' for Inactive)
    1  A    between atoms: C_1  and  O_2
    2  A    between atoms: O_2  and  C_3
    3  A    between atoms: C_5  and  C_6
    4  A    between atoms: C_8  and  C_9
    5  A    between atoms: C_13  and  C_15
    6  A    between atoms: C_19  and  N_20
                            x       y       z     vdW  Elec       q    Type
                         _______ _______ _______ _____ _____    ______ ____

>  <TORSDO>
F 6

$$$$
=
 OpenBabel07192307433D

 45 48  0  0  1  0  0  0  0  0999 V2000
    4.4830    7.3580   17.0090 C   0  0  1  0  0  0  0  0  0  0  0  0
    4.3370    5.8410   16.9770 C   0  0  0  0  0  0  0  0  0  0  0  0
    3.7330    5.5190   18.3510 C   0  0  1  0  0  0  0  0  0  0  0  0
    2.9290    6.6970   18.6810 N   0  0  0  0  0  0  0  0  0  0  0  0
    2.4170    6.8430   19.9590 C   0  0  0  0  0  0  0  0  0  0  0  0
    2.5870    6.0200   20.8520 O   0  0  0  0  0  0  0  0  0  0  0  0
    3.2220    7.7970   17.7630 C   0  0  0  0  0  0  0  0  0  0  0  0
    4.5200    7.8110   16.0120 H   0  0  0  0  0  0  0  0  0  0  0  0
    3.6510    5.5590   16.1680 H   0  0  0  0  0  0  0  0  0  0  0  0
    5.2780    5.3020   16.8260 H   0  0  0  0  0  0  0  0  0  0  0  0
    4.5220    5.4200   19.1060 H   0  0  0  0  0  0  0  0  0  0  0  0
    2.3720    7.8770   17.0780 H   0  0  0  0  0  0  0  0  0  0  0  0
    3.3630    8.7360   18.3050 H   0  0  0  0  0  0  0  0  0  0  0  0
    1.6100    8.0500   20.2560 C   0  0  0  0  0  0  0  0  0  0  0  0
    1.6470    8.5800   21.5460 C   0  0  0  0  0  0  0  0  0  0  0  0
    0.8870    9.7070   21.8460 C   0  0  0  0  0  0  0  0  0  0  0  0
    0.0790   10.2950   20.8650 C   0  0  0  0  0  0  0  0  0  0  0  0
    0.0150    9.7500   19.5720 C   0  0  0  0  0  0  0  0  0  0  0  0
    0.7840    8.6150   19.2750 C   0  0  0  0  0  0  0  0  0  0  0  0
    2.2640    8.1160   22.3130 H   0  0  0  0  0  0  0  0  0  0  0  0
    0.9140   10.1260   22.8490 H   0  0  0  0  0  0  0  0  0  0  0  0
   -0.4970   11.1690   21.1580 H   0  0  0  0  0  0  0  0  0  0  0  0
    0.7500    8.1350   18.3020 H   0  0  0  0  0  0  0  0  0  0  0  0
   -0.8220   10.3370   18.5760 N   0  0  0  0  0  0  0  0  0  0  0  0
   -1.3110   11.6260   18.5460 C   0  0  0  0  0  0  0  0  0  0  0  0
   -2.0720   11.7230   17.4050 C   0  0  0  0  0  0  0  0  0  0  0  0
   -2.0780   10.5410   16.7260 N   0  0  0  0  0  0  0  0  0  0  0  0
   -1.3220    9.7350   17.4400 C   0  0  0  0  0  0  0  0  0  0  0  0
   -1.0920   12.3660   19.3000 H   0  0  0  0  0  0  0  0  0  0  0  0
   -2.6160   12.5860   17.0400 H   0  0  0  0  0  0  0  0  0  0  0  0
   -1.1160    8.7100   17.1700 H   0  0  0  0  0  0  0  0  0  0  0  0
    2.9240    4.2670   18.2880 C   0  0  0  0  0  0  0  0  0  0  0  0
    1.8010    3.9640   18.9060 N   0  0  0  0  0  0  0  0  0  0  0  0
    1.5810    2.6790   18.4860 C   0  0  0  0  0  0  0  0  0  0  0  0
    2.5310    2.1690   17.6930 N   0  0  0  0  0  0  0  0  0  0  0  0
    3.4300    3.2290   17.5550 O   0  0  0  0  0  0  0  0  0  0  0  0
    0.3920    1.9050   18.8890 C   0  0  0  0  0  0  0  0  0  0  0  0
    0.3030    1.8650   19.9790 H   0  0  0  0  0  0  0  0  0  0  0  0
   -0.5170    2.3670   18.4900 H   0  0  0  0  0  0  0  0  0  0  0  0
    0.4510    0.8780   18.5180 H   0  0  0  0  0  0  0  0  0  0  0  0
    5.6330    7.7470   17.7660 O   0  0  0  0  0  0  0  0  0  0  0  0
    6.8270    7.1020   17.3380 C   0  0  0  0  0  0  0  0  0  0  0  0
    7.6340    7.8250   17.1910 H   0  0  0  0  0  0  0  0  0  0  0  0
    6.6250    6.6100   16.3820 H   0  0  0  0  0  0  0  0  0  0  0  0
    7.1300    6.3420   18.0620 H   0  0  0  0  0  0  0  0  0  0  0  0
  1  8  1  6  0  0  0
  1  7  1  0  0  0  0
  1 41  1  0  0  0  0
  2  1  1  0  0  0  0
  2  3  1  0  0  0  0
  3  4  1  0  0  0  0
  3 11  1  1  0  0  0
  4  5  1  0  0  0  0
  5 14  1  0  0  0  0
  5  6  2  0  0  0  0
  7 13  1  0  0  0  0
  7  4  1  0  0  0  0
  9  2  1  0  0  0  0
 10  2  1  0  0  0  0
 12  7  1  0  0  0  0
 14 15  1  0  0  0  0
 15 16  2  0  0  0  0
 15 20  1  0  0  0  0
 16 21  1  0  0  0  0
 17 22  1  0  0  0  0
 17 16  1  0  0  0  0
 18 17  2  0  0  0  0
 19 18  1  0  0  0  0
 19 14  2  0  0  0  0
 23 19  1  0  0  0  0
 24 18  1  0  0  0  0
 25 24  1  0  0  0  0
 25 29  1  0  0  0  0
 26 25  2  0  0  0  0
 27 26  1  0  0  0  0
 27 28  2  0  0  0  0
 28 24  1  0  0  0  0
 30 26  1  0  0  0  0
 31 28  1  0  0  0  0
 32  3  1  0  0  0  0
 32 33  2  0  0  0  0
 34 37  1  0  0  0  0
 34 33  1  0  0  0  0
 35 34  2  0  0  0  0
 36 35  1  0  0  0  0
 36 32  1  0  0  0  0
 37 38  1  0  0  0  0
 39 37  1  0  0  0  0
 40 37  1  0  0  0  0
 42 41  1  0  0  0  0
 42 45  1  0  0  0  0
 43 42  1  0  0  0  0
 44 42  1  0  0  0  0
M  END
>  <MODEL>
26

>  <REMARK>
 VINA RESULT:    -5.365      1.973      3.806
 INTER + INTRA:          -6.720
 INTER:                  -7.017
 INTRA:                   0.298
 UNBOUND:                 0.214
  Name = 
  6 active torsions:
  status: ('A' for Active; 'I' for Inactive)
    1  A    between atoms: C_1  and  O_2
    2  A    between atoms: O_2  and  C_3
    3  A    between atoms: C_5  and  C_6
    4  A    between atoms: C_8  and  C_9
    5  A    between atoms: C_13  and  C_15
    6  A    between atoms: C_19  and  N_20
                            x       y       z     vdW  Elec       q    Type
                         _______ _______ _______ _____ _____    ______ ____

>  <TORSDO>
F 6

$$$$
=
 OpenBabel07192307433D

 45 48  0  0  1  0  0  0  0  0999 V2000
    1.6560    9.1850   18.1200 C   0  0  1  0  0  0  0  0  0  0  0  0
    0.1580    9.0850   17.8520 C   0  0  0  0  0  0  0  0  0  0  0  0
   -0.4170   10.2690   18.6400 C   0  0  1  0  0  0  0  0  0  0  0  0
    0.6430   11.2780   18.6100 N   0  0  0  0  0  0  0  0  0  0  0  0
    0.5480   12.3980   19.4180 C   0  0  0  0  0  0  0  0  0  0  0  0
   -0.3990   12.6110   20.1680 O   0  0  0  0  0  0  0  0  0  0  0  0
    1.8930   10.7010   18.1190 C   0  0  0  0  0  0  0  0  0  0  0  0
    2.2670    8.6940   17.3550 H   0  0  0  0  0  0  0  0  0  0  0  0
   -0.0250    9.2000   16.7760 H   0  0  0  0  0  0  0  0  0  0  0  0
   -0.2930    8.1420   18.1740 H   0  0  0  0  0  0  0  0  0  0  0  0
   -0.5930    9.9880   19.6860 H   0  0  0  0  0  0  0  0  0  0  0  0
    2.0350   11.0670   17.0970 H   0  0  0  0  0  0  0  0  0  0  0  0
    2.7370   10.9930   18.7480 H   0  0  0  0  0  0  0  0  0  0  0  0
    1.6420   13.3960   19.3620 C   0  0  0  0  0  0  0  0  0  0  0  0
    1.7870   14.1680   18.2090 C   0  0  0  0  0  0  0  0  0  0  0  0
    2.8160   15.1030   18.1340 C   0  0  0  0  0  0  0  0  0  0  0  0
    3.7080   15.2560   19.2010 C   0  0  0  0  0  0  0  0  0  0  0  0
    3.5860   14.4640   20.3540 C   0  0  0  0  0  0  0  0  0  0  0  0
    2.5470   13.5240   20.4250 C   0  0  0  0  0  0  0  0  0  0  0  0
    1.1020   14.0400   17.3730 H   0  0  0  0  0  0  0  0  0  0  0  0
    2.9320   15.7080   17.2380 H   0  0  0  0  0  0  0  0  0  0  0  0
    4.4950   15.9960   19.0840 H   0  0  0  0  0  0  0  0  0  0  0  0
    2.4230   12.8650   21.2790 H   0  0  0  0  0  0  0  0  0  0  0  0
    4.5060   14.6070   21.4360 N   0  0  0  0  0  0  0  0  0  0  0  0
    4.2120   14.8800   22.7560 C   0  0  0  0  0  0  0  0  0  0  0  0
    5.4160   14.9340   23.4160 C   0  0  0  0  0  0  0  0  0  0  0  0
    6.4490   14.7090   22.5560 N   0  0  0  0  0  0  0  0  0  0  0  0
    5.8820   14.5110   21.3860 C   0  0  0  0  0  0  0  0  0  0  0  0
    3.2080   15.0050   23.1300 H   0  0  0  0  0  0  0  0  0  0  0  0
    5.5890   15.1230   24.4680 H   0  0  0  0  0  0  0  0  0  0  0  0
    6.4300   14.3000   20.4800 H   0  0  0  0  0  0  0  0  0  0  0  0
   -1.6870   10.7470   18.0180 C   0  0  0  0  0  0  0  0  0  0  0  0
   -2.8080   11.1310   18.5920 N   0  0  0  0  0  0  0  0  0  0  0  0
   -3.6040   11.4040   17.5110 C   0  0  0  0  0  0  0  0  0  0  0  0
   -3.0480   11.1580   16.3180 N   0  0  0  0  0  0  0  0  0  0  0  0
   -1.7640   10.7210   16.6520 O   0  0  0  0  0  0  0  0  0  0  0  0
   -4.9790   11.9180   17.6480 C   0  0  0  0  0  0  0  0  0  0  0  0
   -5.7130   11.1330   17.4360 H   0  0  0  0  0  0  0  0  0  0  0  0
   -5.1520   12.2770   18.6680 H   0  0  0  0  0  0  0  0  0  0  0  0
   -5.1590   12.7440   16.9540 H   0  0  0  0  0  0  0  0  0  0  0  0
    1.9810    8.6670   19.4130 O   0  0  0  0  0  0  0  0  0  0  0  0
    2.3480    7.2940   19.3880 C   0  0  0  0  0  0  0  0  0  0  0  0
    2.0030    6.7770   20.2870 H   0  0  0  0  0  0  0  0  0  0  0  0
    3.4400    7.2320   19.3510 H   0  0  0  0  0  0  0  0  0  0  0  0
    1.9430    6.8070   18.4960 H   0  0  0  0  0  0  0  0  0  0  0  0
  1  8  1  6  0  0  0
  1 41  1  0  0  0  0
  2  1  1  0  0  0  0
  2 10  1  0  0  0  0
  2  3  1  0  0  0  0
  3 11  1  1  0  0  0
  4  3  1  0  0  0  0
  4  5  1  0  0  0  0
  5  6  2  0  0  0  0
  7  1  1  0  0  0  0
  7  4  1  0  0  0  0
  7 13  1  0  0  0  0
  9  2  1  0  0  0  0
 12  7  1  0  0  0  0
 14  5  1  0  0  0  0
 14 19  1  0  0  0  0
 15 14  2  0  0  0  0
 16 15  1  0  0  0  0
 16 17  2  0  0  0  0
 17 18  1  0  0  0  0
 18 19  2  0  0  0  0
 18 24  1  0  0  0  0
 19 23  1  0  0  0  0
 20 15  1  0  0  0  0
 21 16  1  0  0  0  0
 22 17  1  0  0  0  0
 24 25  1  0  0  0  0
 25 29  1  0  0  0  0
 25 26  2  0  0  0  0
 26 30  1  0  0  0  0
 27 26  1  0  0  0  0
 28 24  1  0  0  0  0
 28 27  2  0  0  0  0
 31 28  1  0  0  0  0
 32 33  2  0  0  0  0
 32  3  1  0  0  0  0
 34 37  1  0  0  0  0
 34 33  1  0  0  0  0
 35 36  1  0  0  0  0
 35 34  2  0  0  0  0
 36 32  1  0  0  0  0
 37 39  1  0  0  0  0
 38 37  1  0  0  0  0
 40 37  1  0  0  0  0
 42 41  1  0  0  0  0
 42 43  1  0  0  0  0
 44 42  1  0  0  0  0
 45 42  1  0  0  0  0
M  END
>  <MODEL>
27

>  <REMARK>
 VINA RESULT:    -5.220      4.061      7.882
 INTER + INTRA:          -6.532
 INTER:                  -5.857
 INTRA:                  -0.675
 UNBOUND:                 0.214
  Name = 
  6 active torsions:
  status: ('A' for Active; 'I' for Inactive)
    1  A    between atoms: C_1  and  O_2
    2  A    between atoms: O_2  and  C_3
    3  A    between atoms: C_5  and  C_6
    4  A    between atoms: C_8  and  C_9
    5  A    between atoms: C_13  and  C_15
    6  A    between atoms: C_19  and  N_20
                            x       y       z     vdW  Elec       q    Type
                         _______ _______ _______ _____ _____    ______ ____

>  <TORSDO>
F 6

$$$$
=
 OpenBabel07192307433D

 45 48  0  0  1  0  0  0  0  0999 V2000
    1.6200    8.9660   17.7690 C   0  0  1  0  0  0  0  0  0  0  0  0
    2.0750    7.5380   18.0460 C   0  0  0  0  0  0  0  0  0  0  0  0
    2.2890    7.5280   19.5660 C   0  0  1  0  0  0  0  0  0  0  0  0
    1.3140    8.4930   20.0770 N   0  0  0  0  0  0  0  0  0  0  0  0
    1.3800    8.9020   21.3990 C   0  0  0  0  0  0  0  0  0  0  0  0
    2.2180    8.4860   22.1920 O   0  0  0  0  0  0  0  0  0  0  0  0
    0.7370    9.2750   18.9850 C   0  0  0  0  0  0  0  0  0  0  0  0
    1.0510    9.0670   16.8380 H   0  0  0  0  0  0  0  0  0  0  0  0
    1.2800    6.8400   17.7540 H   0  0  0  0  0  0  0  0  0  0  0  0
    2.9900    7.2490   17.5200 H   0  0  0  0  0  0  0  0  0  0  0  0
    3.2930    7.8900   19.8170 H   0  0  0  0  0  0  0  0  0  0  0  0
   -0.2800    8.9030   18.8260 H   0  0  0  0  0  0  0  0  0  0  0  0
    0.7190   10.3400   19.2290 H   0  0  0  0  0  0  0  0  0  0  0  0
    0.3780    9.8820   21.8790 C   0  0  0  0  0  0  0  0  0  0  0  0
   -0.4440    9.5290   22.9500 C   0  0  0  0  0  0  0  0  0  0  0  0
   -1.3990   10.4330   23.4080 C   0  0  0  0  0  0  0  0  0  0  0  0
   -1.5440   11.6800   22.7890 C   0  0  0  0  0  0  0  0  0  0  0  0
   -0.7390   12.0310   21.6920 C   0  0  0  0  0  0  0  0  0  0  0  0
    0.2220   11.1180   21.2360 C   0  0  0  0  0  0  0  0  0  0  0  0
   -0.3420    8.5550   23.4230 H   0  0  0  0  0  0  0  0  0  0  0  0
   -2.0410   10.1640   24.2440 H   0  0  0  0  0  0  0  0  0  0  0  0
   -2.3090   12.3420   23.1840 H   0  0  0  0  0  0  0  0  0  0  0  0
    0.8510   11.3240   20.3750 H   0  0  0  0  0  0  0  0  0  0  0  0
   -0.8970   13.2950   21.0490 N   0  0  0  0  0  0  0  0  0  0  0  0
   -1.9030   14.2170   21.2480 C   0  0  0  0  0  0  0  0  0  0  0  0
   -1.6380   15.2670   20.4000 C   0  0  0  0  0  0  0  0  0  0  0  0
   -0.5070   15.0290   19.6770 N   0  0  0  0  0  0  0  0  0  0  0  0
   -0.0820   13.8540   20.0850 C   0  0  0  0  0  0  0  0  0  0  0  0
   -2.7060   14.0820   21.9560 H   0  0  0  0  0  0  0  0  0  0  0  0
   -2.2060   16.1800   20.2760 H   0  0  0  0  0  0  0  0  0  0  0  0
    0.8070   13.3720   19.7070 H   0  0  0  0  0  0  0  0  0  0  0  0
    2.0860    6.1560   20.1160 C   0  0  0  0  0  0  0  0  0  0  0  0
    2.9740    5.2210   20.3830 N   0  0  0  0  0  0  0  0  0  0  0  0
    2.1820    4.1890   20.8140 C   0  0  0  0  0  0  0  0  0  0  0  0
    0.8660    4.4260   20.7710 N   0  0  0  0  0  0  0  0  0  0  0  0
    0.7960    5.7420   20.3080 O   0  0  0  0  0  0  0  0  0  0  0  0
    2.7370    2.9030   21.2750 C   0  0  0  0  0  0  0  0  0  0  0  0
    3.6550    3.0570   21.8500 H   0  0  0  0  0  0  0  0  0  0  0  0
    2.0170    2.3860   21.9170 H   0  0  0  0  0  0  0  0  0  0  0  0
    2.9750    2.2540   20.4270 H   0  0  0  0  0  0  0  0  0  0  0  0
    2.7310    9.8670   17.7630 O   0  0  0  0  0  0  0  0  0  0  0  0
    2.3660   11.2040   18.0820 C   0  0  0  0  0  0  0  0  0  0  0  0
    1.6640   11.2320   18.9200 H   0  0  0  0  0  0  0  0  0  0  0  0
    1.8770   11.6430   17.2070 H   0  0  0  0  0  0  0  0  0  0  0  0
    3.2540   11.7960   18.3170 H   0  0  0  0  0  0  0  0  0  0  0  0
  1  8  1  6  0  0  0
  1  2  1  0  0  0  0
  1  7  1  0  0  0  0
  2  3  1  0  0  0  0
  3 11  1  1  0  0  0
  3  4  1  0  0  0  0
  3 32  1  0  0  0  0
  4  5  1  0  0  0  0
  5 14  1  0  0  0  0
  5  6  2  0  0  0  0
  7 13  1  0  0  0  0
  7  4  1  0  0  0  0
  9  2  1  0  0  0  0
 10  2  1  0  0  0  0
 12  7  1  0  0  0  0
 14 15  1  0  0  0  0
 15 16  2  0  0  0  0
 15 20  1  0  0  0  0
 16 21  1  0  0  0  0
 17 22  1  0  0  0  0
 17 16  1  0  0  0  0
 18 17  2  0  0  0  0
 19 18  1  0  0  0  0
 19 14  2  0  0  0  0
 23 19  1  0  0  0  0
 24 25  1  0  0  0  0
 24 18  1  0  0  0  0
 25 29  1  0  0  0  0
 26 25  2  0  0  0  0
 27 28  2  0  0  0  0
 27 26  1  0  0  0  0
 28 24  1  0  0  0  0
 30 26  1  0  0  0  0
 31 28  1  0  0  0  0
 32 36  1  0  0  0  0
 32 33  2  0  0  0  0
 33 34  1  0  0  0  0
 34 37  1  0  0  0  0
 35 34  2  0  0  0  0
 36 35  1  0  0  0  0
 37 38  1  0  0  0  0
 37 39  1  0  0  0  0
 40 37  1  0  0  0  0
 41  1  1  0  0  0  0
 41 42  1  0  0  0  0
 42 45  1  0  0  0  0
 42 43  1  0  0  0  0
 44 42  1  0  0  0  0
M  END
>  <MODEL>
28

>  <REMARK>
 VINA RESULT:    -5.135      2.805      4.573
 INTER + INTRA:          -6.423
 INTER:                  -6.068
 INTRA:                  -0.355
 UNBOUND:                 0.214
  Name = 
  6 active torsions:
  status: ('A' for Active; 'I' for Inactive)
    1  A    between atoms: C_1  and  O_2
    2  A    between atoms: O_2  and  C_3
    3  A    between atoms: C_5  and  C_6
    4  A    between atoms: C_8  and  C_9
    5  A    between atoms: C_13  and  C_15
    6  A    between atoms: C_19  and  N_20
                            x       y       z     vdW  Elec       q    Type
                         _______ _______ _______ _____ _____    ______ ____

>  <TORSDO>
F 6

$$$$
=
 OpenBabel07192307433D

 45 48  0  0  1  0  0  0  0  0999 V2000
    0.7930    9.7720   19.4590 C   0  0  1  0  0  0  0  0  0  0  0  0
   -0.6510   10.0010   19.8900 C   0  0  0  0  0  0  0  0  0  0  0  0
   -0.5840   11.3360   20.6430 C   0  0  1  0  0  0  0  0  0  0  0  0
    0.5000   12.0700   19.9880 N   0  0  0  0  0  0  0  0  0  0  0  0
    0.9840   13.2350   20.5590 C   0  0  0  0  0  0  0  0  0  0  0  0
    0.5420   13.7100   21.6000 O   0  0  0  0  0  0  0  0  0  0  0  0
    1.2620   11.1900   19.1040 C   0  0  0  0  0  0  0  0  0  0  0  0
    0.8880    9.1030   18.5970 H   0  0  0  0  0  0  0  0  0  0  0  0
   -1.2870   10.0810   18.9990 H   0  0  0  0  0  0  0  0  0  0  0  0
   -1.0590    9.2110   20.5280 H   0  0  0  0  0  0  0  0  0  0  0  0
   -0.3040   11.1760   21.6910 H   0  0  0  0  0  0  0  0  0  0  0  0
    0.9780   11.4420   18.0770 H   0  0  0  0  0  0  0  0  0  0  0  0
    2.3380   11.3220   19.2450 H   0  0  0  0  0  0  0  0  0  0  0  0
    2.0840   13.9490   19.8680 C   0  0  0  0  0  0  0  0  0  0  0  0
    1.8400   14.4960   18.6070 C   0  0  0  0  0  0  0  0  0  0  0  0
    2.8650   15.1600   17.9390 C   0  0  0  0  0  0  0  0  0  0  0  0
    4.1340   15.2660   18.5200 C   0  0  0  0  0  0  0  0  0  0  0  0
    4.3950   14.6940   19.7760 C   0  0  0  0  0  0  0  0  0  0  0  0
    3.3590   14.0270   20.4460 C   0  0  0  0  0  0  0  0  0  0  0  0
    0.8580   14.4020   18.1490 H   0  0  0  0  0  0  0  0  0  0  0  0
    2.6800   15.5900   16.9570 H   0  0  0  0  0  0  0  0  0  0  0  0
    4.8960   15.7900   17.9490 H   0  0  0  0  0  0  0  0  0  0  0  0
    3.5110   13.5410   21.4050 H   0  0  0  0  0  0  0  0  0  0  0  0
    5.6930   14.7860   20.3620 N   0  0  0  0  0  0  0  0  0  0  0  0
    6.0130   14.7360   21.7020 C   0  0  0  0  0  0  0  0  0  0  0  0
    7.3790   14.8760   21.7780 C   0  0  0  0  0  0  0  0  0  0  0  0
    7.9190   15.0160   20.5340 N   0  0  0  0  0  0  0  0  0  0  0  0
    6.8970   14.9520   19.7100 C   0  0  0  0  0  0  0  0  0  0  0  0
    5.2840   14.6020   22.4860 H   0  0  0  0  0  0  0  0  0  0  0  0
    7.9970   14.8840   22.6670 H   0  0  0  0  0  0  0  0  0  0  0  0
    6.9870   15.0250   18.6360 H   0  0  0  0  0  0  0  0  0  0  0  0
   -1.8930   12.0490   20.5660 C   0  0  0  0  0  0  0  0  0  0  0  0
   -2.5300   12.7320   21.4940 N   0  0  0  0  0  0  0  0  0  0  0  0
   -3.6780   13.0980   20.8420 C   0  0  0  0  0  0  0  0  0  0  0  0
   -3.7960   12.6330   19.5930 N   0  0  0  0  0  0  0  0  0  0  0  0
   -2.6020   11.9330   19.4020 O   0  0  0  0  0  0  0  0  0  0  0  0
   -4.7180   13.9310   21.4740 C   0  0  0  0  0  0  0  0  0  0  0  0
   -5.0740   13.4740   22.4020 H   0  0  0  0  0  0  0  0  0  0  0  0
   -4.3190   14.9220   21.7140 H   0  0  0  0  0  0  0  0  0  0  0  0
   -5.5770   14.0550   20.8080 H   0  0  0  0  0  0  0  0  0  0  0  0
    1.5820    9.2840   20.5470 O   0  0  0  0  0  0  0  0  0  0  0  0
    1.0300    8.1260   21.1610 C   0  0  0  0  0  0  0  0  0  0  0  0
    1.4980    7.2150   20.7770 H   0  0  0  0  0  0  0  0  0  0  0  0
   -0.0380    8.0910   20.9260 H   0  0  0  0  0  0  0  0  0  0  0  0
    1.1440    8.1780   22.2470 H   0  0  0  0  0  0  0  0  0  0  0  0
  1  8  1  6  0  0  0
  1  2  1  0  0  0  0
  1 41  1  0  0  0  0
  2 10  1  0  0  0  0
  2  3  1  0  0  0  0
  3 11  1  1  0  0  0
  4  5  1  0  0  0  0
  4  3  1  0  0  0  0
  5  6  2  0  0  0  0
  7 13  1  0  0  0  0
  7  1  1  0  0  0  0
  7  4  1  0  0  0  0
  9  2  1  0  0  0  0
 12  7  1  0  0  0  0
 14 19  1  0  0  0  0
 14  5  1  0  0  0  0
 15 14  2  0  0  0  0
 16 17  2  0  0  0  0
 16 15  1  0  0  0  0
 17 18  1  0  0  0  0
 18 24  1  0  0  0  0
 18 19  2  0  0  0  0
 19 23  1  0  0  0  0
 20 15  1  0  0  0  0
 21 16  1  0  0  0  0
 22 17  1  0  0  0  0
 24 25  1  0  0  0  0
 25 26  2  0  0  0  0
 25 29  1  0  0  0  0
 26 30  1  0  0  0  0
 27 26  1  0  0  0  0
 28 24  1  0  0  0  0
 28 27  2  0  0  0  0
 31 28  1  0  0  0  0
 32  3  1  0  0  0  0
 32 33  2  0  0  0  0
 34 37  1  0  0  0  0
 34 33  1  0  0  0  0
 35 34  2  0  0  0  0
 36 35  1  0  0  0  0
 36 32  1  0  0  0  0
 37 39  1  0  0  0  0
 37 38  1  0  0  0  0
 40 37  1  0  0  0  0
 41 42  1  0  0  0  0
 42 45  1  0  0  0  0
 43 42  1  0  0  0  0
 44 42  1  0  0  0  0
M  END
>  <MODEL>
29

>  <REMARK>
 VINA RESULT:    -5.048      4.854      8.681
 INTER + INTRA:          -6.310
 INTER:                  -5.695
 INTRA:                  -0.615
 UNBOUND:                 0.214
  Name = 
  6 active torsions:
  status: ('A' for Active; 'I' for Inactive)
    1  A    between atoms: C_1  and  O_2
    2  A    between atoms: O_2  and  C_3
    3  A    between atoms: C_5  and  C_6
    4  A    between atoms: C_8  and  C_9
    5  A    between atoms: C_13  and  C_15
    6  A    between atoms: C_19  and  N_20
                            x       y       z     vdW  Elec       q    Type
                         _______ _______ _______ _____ _____    ______ ____

>  <TORSDO>
F 6

$$$$
=
 OpenBabel07192307433D

 45 48  0  0  1  0  0  0  0  0999 V2000
    0.9200   14.2260   21.5800 C   0  0  1  0  0  0  0  0  0  0  0  0
   -0.1080   14.6250   22.6330 C   0  0  0  0  0  0  0  0  0  0  0  0
   -1.4460   14.4010   21.9180 C   0  0  1  0  0  0  0  0  0  0  0  0
   -1.1870   13.2940   20.9950 N   0  0  0  0  0  0  0  0  0  0  0  0
   -2.1230   12.9730   20.0260 C   0  0  0  0  0  0  0  0  0  0  0  0
   -3.1890   13.5640   19.8970 O   0  0  0  0  0  0  0  0  0  0  0  0
    0.2470   13.0270   20.8980 C   0  0  0  0  0  0  0  0  0  0  0  0
    1.8880   13.9400   22.0050 H   0  0  0  0  0  0  0  0  0  0  0  0
   -0.0090   13.9650   23.5040 H   0  0  0  0  0  0  0  0  0  0  0  0
   -0.0160   15.6590   22.9800 H   0  0  0  0  0  0  0  0  0  0  0  0
   -1.7210   15.2830   21.3260 H   0  0  0  0  0  0  0  0  0  0  0  0
    0.4410   12.1070   21.4590 H   0  0  0  0  0  0  0  0  0  0  0  0
    0.5570   12.9100   19.8560 H   0  0  0  0  0  0  0  0  0  0  0  0
   -1.8230   11.8480   19.1100 C   0  0  0  0  0  0  0  0  0  0  0  0
   -2.7250   11.5600   18.0850 C   0  0  0  0  0  0  0  0  0  0  0  0
   -2.4650   10.5000   17.2210 C   0  0  0  0  0  0  0  0  0  0  0  0
   -1.3160    9.7190   17.3880 C   0  0  0  0  0  0  0  0  0  0  0  0
   -0.4180    9.9850   18.4340 C   0  0  0  0  0  0  0  0  0  0  0  0
   -0.6830   11.0550   19.3010 C   0  0  0  0  0  0  0  0  0  0  0  0
   -3.6260   12.1580   17.9620 H   0  0  0  0  0  0  0  0  0  0  0  0
   -3.1640   10.2730   16.4190 H   0  0  0  0  0  0  0  0  0  0  0  0
   -1.1680    8.9010   16.6880 H   0  0  0  0  0  0  0  0  0  0  0  0
   -0.0400   11.2880   20.1440 H   0  0  0  0  0  0  0  0  0  0  0  0
    0.7460    9.1790   18.6170 N   0  0  0  0  0  0  0  0  0  0  0  0
    1.7140    8.8800   17.6820 C   0  0  0  0  0  0  0  0  0  0  0  0
    2.6250    8.0680   18.3150 C   0  0  0  0  0  0  0  0  0  0  0  0
    2.2560    7.8460   19.6090 N   0  0  0  0  0  0  0  0  0  0  0  0
    1.1400    8.5230   19.7660 C   0  0  0  0  0  0  0  0  0  0  0  0
    1.7020    9.2530   16.6690 H   0  0  0  0  0  0  0  0  0  0  0  0
    3.5260    7.6320   17.9030 H   0  0  0  0  0  0  0  0  0  0  0  0
    0.5850    8.5610   20.6920 H   0  0  0  0  0  0  0  0  0  0  0  0
   -2.5230   14.0900   22.9040 C   0  0  0  0  0  0  0  0  0  0  0  0
   -2.9570   12.9220   23.3280 N   0  0  0  0  0  0  0  0  0  0  0  0
   -3.9710   13.2840   24.1760 C   0  0  0  0  0  0  0  0  0  0  0  0
   -4.2090   14.6000   24.2480 N   0  0  0  0  0  0  0  0  0  0  0  0
   -3.2410   15.1430   23.4010 O   0  0  0  0  0  0  0  0  0  0  0  0
   -4.7540   12.2990   24.9430 C   0  0  0  0  0  0  0  0  0  0  0  0
   -5.8250   12.4060   24.7390 H   0  0  0  0  0  0  0  0  0  0  0  0
   -4.4580   11.2810   24.6710 H   0  0  0  0  0  0  0  0  0  0  0  0
   -4.6010   12.4290   26.0180 H   0  0  0  0  0  0  0  0  0  0  0  0
    1.0970   15.2670   20.6150 O   0  0  0  0  0  0  0  0  0  0  0  0
    1.6970   14.8130   19.4080 C   0  0  0  0  0  0  0  0  0  0  0  0
    2.6190   15.3610   19.1960 H   0  0  0  0  0  0  0  0  0  0  0  0
    0.9930   14.9890   18.5890 H   0  0  0  0  0  0  0  0  0  0  0  0
    1.9020   13.7400   19.4650 H   0  0  0  0  0  0  0  0  0  0  0  0
  1  8  1  1  0  0  0
  1  2  1  0  0  0  0
  2 10  1  0  0  0  0
  2  9  1  0  0  0  0
  3 11  1  6  0  0  0
  3  2  1  0  0  0  0
  3 32  1  0  0  0  0
  4  3  1  0  0  0  0
  5  4  1  0  0  0  0
  6  5  2  0  0  0  0
  7  4  1  0  0  0  0
  7 12  1  0  0  0  0
  7  1  1  0  0  0  0
 13  7  1  0  0  0  0
 14 19  1  0  0  0  0
 14  5  1  0  0  0  0
 15 14  2  0  0  0  0
 16 17  2  0  0  0  0
 16 15  1  0  0  0  0
 17 18  1  0  0  0  0
 18 24  1  0  0  0  0
 18 19  2  0  0  0  0
 19 23  1  0  0  0  0
 20 15  1  0  0  0  0
 21 16  1  0  0  0  0
 22 17  1  0  0  0  0
 24 28  1  0  0  0  0
 25 26  2  0  0  0  0
 25 24  1  0  0  0  0
 26 27  1  0  0  0  0
 27 28  2  0  0  0  0
 28 31  1  0  0  0  0
 29 25  1  0  0  0  0
 30 26  1  0  0  0  0
 32 33  2  0  0  0  0
 32 36  1  0  0  0  0
 33 34  1  0  0  0  0
 34 35  2  0  0  0  0
 34 37  1  0  0  0  0
 36 35  1  0  0  0  0
 37 40  1  0  0  0  0
 38 37  1  0  0  0  0
 39 37  1  0  0  0  0
 41  1  1  0  0  0  0
 42 45  1  0  0  0  0
 42 41  1  0  0  0  0
 43 42  1  0  0  0  0
 44 42  1  0  0  0  0
M  END
>  <MODEL>
30

>  <REMARK>
 VINA RESULT:    -4.846      4.928      9.726
 INTER + INTRA:          -6.049
 INTER:                  -6.169
 INTRA:                   0.119
 UNBOUND:                 0.214
  Name = 
  6 active torsions:
  status: ('A' for Active; 'I' for Inactive)
    1  A    between atoms: C_1  and  O_2
    2  A    between atoms: O_2  and  C_3
    3  A    between atoms: C_5  and  C_6
    4  A    between atoms: C_8  and  C_9
    5  A    between atoms: C_13  and  C_15
    6  A    between atoms: C_19  and  N_20
                            x       y       z     vdW  Elec       q    Type
                         _______ _______ _______ _____ _____    ______ ____

>  <TORSDO>
F 6

$$$$
=
 OpenBabel07192307433D

 45 48  0  0  1  0  0  0  0  0999 V2000
   -1.6630   12.2180   20.6070 C   0  0  1  0  0  0  0  0  0  0  0  0
   -2.4520   12.2830   19.3040 C   0  0  0  0  0  0  0  0  0  0  0  0
   -1.5420   11.5510   18.3080 C   0  0  1  0  0  0  0  0  0  0  0  0
   -0.8340   10.5600   19.1200 N   0  0  0  0  0  0  0  0  0  0  0  0
    0.2370    9.8670   18.5800 C   0  0  0  0  0  0  0  0  0  0  0  0
    0.6330   10.0280   17.4310 O   0  0  0  0  0  0  0  0  0  0  0  0
   -1.0340   10.8200   20.5440 C   0  0  0  0  0  0  0  0  0  0  0  0
   -2.2900   12.3240   21.4990 H   0  0  0  0  0  0  0  0  0  0  0  0
   -3.4050   11.7540   19.4310 H   0  0  0  0  0  0  0  0  0  0  0  0
   -2.6710   13.2990   18.9620 H   0  0  0  0  0  0  0  0  0  0  0  0
   -0.8000   12.2390   17.8850 H   0  0  0  0  0  0  0  0  0  0  0  0
   -1.7360   10.0650   20.9140 H   0  0  0  0  0  0  0  0  0  0  0  0
   -0.0900   10.7610   21.0930 H   0  0  0  0  0  0  0  0  0  0  0  0
    0.9290    8.8740   19.4340 C   0  0  0  0  0  0  0  0  0  0  0  0
    0.8820    9.0310   20.8190 C   0  0  0  0  0  0  0  0  0  0  0  0
    1.5360    8.1130   21.6360 C   0  0  0  0  0  0  0  0  0  0  0  0
    2.2490    7.0490   21.0720 C   0  0  0  0  0  0  0  0  0  0  0  0
    2.3250    6.9000   19.6770 C   0  0  0  0  0  0  0  0  0  0  0  0
    1.6630    7.8270   18.8580 C   0  0  0  0  0  0  0  0  0  0  0  0
    0.3400    9.8650   21.2590 H   0  0  0  0  0  0  0  0  0  0  0  0
    1.5010    8.2290   22.7170 H   0  0  0  0  0  0  0  0  0  0  0  0
    2.7450    6.3670   21.7580 H   0  0  0  0  0  0  0  0  0  0  0  0
    1.7120    7.7770   17.7750 H   0  0  0  0  0  0  0  0  0  0  0  0
    3.0660    5.8260   19.0990 N   0  0  0  0  0  0  0  0  0  0  0  0
    2.6390    4.9360   18.1360 C   0  0  0  0  0  0  0  0  0  0  0  0
    3.6920    4.0810   17.9070 C   0  0  0  0  0  0  0  0  0  0  0  0
    4.7560    4.4040   18.6960 N   0  0  0  0  0  0  0  0  0  0  0  0
    4.3610    5.4480   19.3910 C   0  0  0  0  0  0  0  0  0  0  0  0
    1.6600    4.9670   17.6850 H   0  0  0  0  0  0  0  0  0  0  0  0
    3.7350    3.2500   17.2140 H   0  0  0  0  0  0  0  0  0  0  0  0
    4.9790    5.9560   20.1160 H   0  0  0  0  0  0  0  0  0  0  0  0
   -2.3490   10.9330   17.2150 C   0  0  0  0  0  0  0  0  0  0  0  0
   -2.2750   11.1160   15.9140 N   0  0  0  0  0  0  0  0  0  0  0  0
   -3.2900   10.3180   15.4540 C   0  0  0  0  0  0  0  0  0  0  0  0
   -4.0070    9.7070   16.4050 N   0  0  0  0  0  0  0  0  0  0  0  0
   -3.3790   10.1120   17.5840 O   0  0  0  0  0  0  0  0  0  0  0  0
   -3.5840   10.1570   14.0190 C   0  0  0  0  0  0  0  0  0  0  0  0
   -4.5770    9.7200   13.8700 H   0  0  0  0  0  0  0  0  0  0  0  0
   -3.5610   11.1280   13.5130 H   0  0  0  0  0  0  0  0  0  0  0  0
   -2.8520    9.4990   13.5420 H   0  0  0  0  0  0  0  0  0  0  0  0
   -0.6180   13.1950   20.6230 O   0  0  0  0  0  0  0  0  0  0  0  0
    0.4790   12.8240   21.4490 C   0  0  0  0  0  0  0  0  0  0  0  0
    0.2090   12.8740   22.5080 H   0  0  0  0  0  0  0  0  0  0  0  0
    1.2970   13.5270   21.2670 H   0  0  0  0  0  0  0  0  0  0  0  0
    0.8240   11.8180   21.1960 H   0  0  0  0  0  0  0  0  0  0  0  0
  1 41  1  0  0  0  0
  1  8  1  1  0  0  0
  2  9  1  0  0  0  0
  2  1  1  0  0  0  0
  3 11  1  6  0  0  0
  3  4  1  0  0  0  0
  3  2  1  0  0  0  0
  4  7  1  0  0  0  0
  5  4  1  0  0  0  0
  5 14  1  0  0  0  0
  6  5  2  0  0  0  0
  7  1  1  0  0  0  0
  7 12  1  0  0  0  0
  7 13  1  0  0  0  0
 10  2  1  0  0  0  0
 14 15  1  0  0  0  0
 15 20  1  0  0  0  0
 15 16  2  0  0  0  0
 16 21  1  0  0  0  0
 17 16  1  0  0  0  0
 17 22  1  0  0  0  0
 18 17  2  0  0  0  0
 19 14  2  0  0  0  0
 19 18  1  0  0  0  0
 23 19  1  0  0  0  0
 24 28  1  0  0  0  0
 24 18  1  0  0  0  0
 25 24  1  0  0  0  0
 26 25  2  0  0  0  0
 26 27  1  0  0  0  0
 27 28  2  0  0  0  0
 28 31  1  0  0  0  0
 29 25  1  0  0  0  0
 30 26  1  0  0  0  0
 32 36  1  0  0  0  0
 32  3  1  0  0  0  0
 33 32  2  0  0  0  0
 34 33  1  0  0  0  0
 34 35  2  0  0  0  0
 35 36  1  0  0  0  0
 37 34  1  0  0  0  0
 38 37  1  0  0  0  0
 39 37  1  0  0  0  0
 40 37  1  0  0  0  0
 41 42  1  0  0  0  0
 42 43  1  0  0  0  0
 44 42  1  0  0  0  0
 45 42  1  0  0  0  0
M  END
>  <MODEL>
31

>  <REMARK>
 VINA RESULT:    -4.737      2.924      8.215
 INTER + INTRA:          -5.908
 INTER:                  -6.122
 INTRA:                   0.214
 UNBOUND:                 0.214
  Name = 
  6 active torsions:
  status: ('A' for Active; 'I' for Inactive)
    1  A    between atoms: C_1  and  O_2
    2  A    between atoms: O_2  and  C_3
    3  A    between atoms: C_5  and  C_6
    4  A    between atoms: C_8  and  C_9
    5  A    between atoms: C_13  and  C_15
    6  A    between atoms: C_19  and  N_20
                            x       y       z     vdW  Elec       q    Type
                         _______ _______ _______ _____ _____    ______ ____

>  <TORSDO>
F 6

$$$$
