=
 OpenBabel07192307433D

 48 51  0  0  1  0  0  0  0  0999 V2000
    2.9880    6.9990   18.0300 C   0  0  0  0  0  0  0  0  0  0  0  0
    3.6590    7.6270   17.2120 O   0  0  0  0  0  0  0  0  0  0  0  0
    2.9980    5.6020   18.1420 N   0  0  0  0  0  0  0  0  0  0  0  0
    1.8380    4.8510   18.6280 C   0  0  0  0  0  0  0  0  0  0  0  0
    2.2350    3.4960   19.1980 C   0  0  0  0  0  0  0  0  0  0  0  0
    3.0590    2.6550   18.2230 C   0  0  0  0  0  0  0  0  0  0  0  0
    3.5180    3.4360   16.9930 C   0  0  0  0  0  0  0  0  0  0  0  0
    3.9580    4.8760   17.3010 C   0  0  2  0  0  0  0  0  0  0  0  0
    1.1550    4.7250   17.7780 H   0  0  0  0  0  0  0  0  0  0  0  0
    1.2830    5.4110   19.3840 H   0  0  0  0  0  0  0  0  0  0  0  0
    2.8130    3.6490   20.1170 H   0  0  0  0  0  0  0  0  0  0  0  0
    1.3370    2.9410   19.4950 H   0  0  0  0  0  0  0  0  0  0  0  0
    3.9260    2.2400   18.7510 H   0  0  0  0  0  0  0  0  0  0  0  0
    2.4700    1.7910   17.8930 H   0  0  0  0  0  0  0  0  0  0  0  0
    4.3150    2.8820   16.4800 H   0  0  0  0  0  0  0  0  0  0  0  0
    2.6760    3.4780   16.2880 H   0  0  0  0  0  0  0  0  0  0  0  0
    4.0180    5.3970   16.3360 H   0  0  0  0  0  0  0  0  0  0  0  0
    0.6670    9.6620   19.3370 C   0  0  0  0  0  0  0  0  0  0  0  0
    0.5630    9.2890   20.6800 C   0  0  0  0  0  0  0  0  0  0  0  0
    1.2560    8.1710   21.1610 C   0  0  0  0  0  0  0  0  0  0  0  0
    2.0480    7.4140   20.3010 C   0  0  0  0  0  0  0  0  0  0  0  0
    2.1360    7.7760   18.9540 C   0  0  0  0  0  0  0  0  0  0  0  0
    1.4690    8.9070   18.4780 C   0  0  0  0  0  0  0  0  0  0  0  0
   -0.0250    9.8600   21.3920 H   0  0  0  0  0  0  0  0  0  0  0  0
    1.1890    7.9050   22.2130 H   0  0  0  0  0  0  0  0  0  0  0  0
    2.6060    6.5610   20.6780 H   0  0  0  0  0  0  0  0  0  0  0  0
    1.5800    9.2040   17.4370 H   0  0  0  0  0  0  0  0  0  0  0  0
    0.0630   10.7370   18.7480 O   0  0  0  0  0  0  0  0  0  0  0  0
   -1.3270   10.9770   19.0180 C   0  0  0  0  0  0  0  0  0  0  0  0
   -1.4590   11.9080   19.5840 H   0  0  0  0  0  0  0  0  0  0  0  0
   -1.6400   10.1730   19.6940 H   0  0  0  0  0  0  0  0  0  0  0  0
   -2.9610   10.5140   15.9080 C   0  0  0  0  0  0  0  0  0  0  0  0
   -1.9090   10.2710   16.6560 N   0  0  0  0  0  0  0  0  0  0  0  0
   -2.2210   10.9300   17.8220 C   0  0  0  0  0  0  0  0  0  0  0  0
   -3.4080   11.5580   17.8070 N   0  0  0  0  0  0  0  0  0  0  0  0
   -3.9030   11.2780   16.5320 O   0  0  0  0  0  0  0  0  0  0  0  0
   -3.2590   10.0840   14.5320 C   0  0  0  0  0  0  0  0  0  0  0  0
   -3.0290   10.8830   13.8190 H   0  0  0  0  0  0  0  0  0  0  0  0
   -2.6600    9.2070   14.2680 H   0  0  0  0  0  0  0  0  0  0  0  0
   -4.3170    9.8270   14.4280 H   0  0  0  0  0  0  0  0  0  0  0  0
    5.3200    4.9400   17.9360 C   0  0  0  0  0  0  0  0  0  0  0  0
    6.5950    4.7730   17.3460 C   0  0  0  0  0  0  0  0  0  0  0  0
    7.5980    4.8970   18.2220 N   0  0  0  0  0  0  0  0  0  0  0  0
    6.9690    5.1090   19.3880 N   0  0  0  0  0  0  0  0  0  0  0  0
    5.6120    5.1650   19.2680 C   0  0  0  0  0  0  0  0  0  0  0  0
    6.8380    4.5650   16.3140 H   0  0  0  0  0  0  0  0  0  0  0  0
    7.5300    5.2080   20.2280 H   0  0  0  0  0  0  0  0  0  0  0  0
    4.9780    5.3280   20.1280 H   0  0  0  0  0  0  0  0  0  0  0  0
  1  3  1  0  0  0  0
  1 22  1  0  0  0  0
  2  1  2  0  0  0  0
  3  4  1  0  0  0  0
  4  5  1  0  0  0  0
  4 10  1  0  0  0  0
  5 12  1  0  0  0  0
  5 11  1  0  0  0  0
  6 13  1  0  0  0  0
  6  5  1  0  0  0  0
  7  8  1  0  0  0  0
  7  6  1  0  0  0  0
  8 17  1  6  0  0  0
  8 41  1  0  0  0  0
  8  3  1  0  0  0  0
  9  4  1  0  0  0  0
 14  6  1  0  0  0  0
 15  7  1  0  0  0  0
 16  7  1  0  0  0  0
 18 19  1  0  0  0  0
 19 20  2  0  0  0  0
 19 24  1  0  0  0  0
 20 25  1  0  0  0  0
 21 26  1  0  0  0  0
 21 20  1  0  0  0  0
 22 21  2  0  0  0  0
 23 22  1  0  0  0  0
 23 18  2  0  0  0  0
 27 23  1  0  0  0  0
 28 29  1  0  0  0  0
 28 18  1  0  0  0  0
 29 30  1  0  0  0  0
 29 31  1  0  0  0  0
 32 36  1  0  0  0  0
 32 33  2  0  0  0  0
 33 34  1  0  0  0  0
 34 29  1  0  0  0  0
 35 34  2  0  0  0  0
 36 35  1  0  0  0  0
 37 32  1  0  0  0  0
 38 37  1  0  0  0  0
 39 37  1  0  0  0  0
 40 37  1  0  0  0  0
 41 45  2  0  0  0  0
 42 41  1  0  0  0  0
 42 43  2  0  0  0  0
 43 44  1  0  0  0  0
 44 47  1  0  0  0  0
 45 44  1  0  0  0  0
 45 48  1  0  0  0  0
 46 42  1  0  0  0  0
M  END
>  <MODEL>
1

>  <REMARK>
 VINA RESULT:    -9.162      0.000      0.000
 INTER + INTRA:         -11.488
 INTER:                 -11.054
 INTRA:                  -0.433
 UNBOUND:                 0.621
  Name = 
  6 active torsions:
  status: ('A' for Active; 'I' for Inactive)
    1  A    between atoms: C_1  and  C_2
    2  A    between atoms: C_4  and  C_5
    3  A    between atoms: C_5  and  O_6
    4  A    between atoms: O_6  and  C_7
    5  A    between atoms: C_11  and  C_12
    6  A    between atoms: C_19  and  C_20
                            x       y       z     vdW  Elec       q    Type
                         _______ _______ _______ _____ _____    ______ ____

>  <TORSDO>
F 6

$$$$
=
 OpenBabel07192307433D

 48 51  0  0  1  0  0  0  0  0999 V2000
    3.0710    6.9140   18.0780 C   0  0  0  0  0  0  0  0  0  0  0  0
    3.7090    7.5520   17.2420 O   0  0  0  0  0  0  0  0  0  0  0  0
    3.1060    5.5180   18.1910 N   0  0  0  0  0  0  0  0  0  0  0  0
    1.9720    4.7480   18.7090 C   0  0  0  0  0  0  0  0  0  0  0  0
    2.4060    3.4010   19.2690 C   0  0  0  0  0  0  0  0  0  0  0  0
    3.2170    2.5730   18.2740 C   0  0  0  0  0  0  0  0  0  0  0  0
    3.6310    3.3590   17.0310 C   0  0  0  0  0  0  0  0  0  0  0  0
    4.0550    4.8070   17.3250 C   0  0  2  0  0  0  0  0  0  0  0  0
    1.2680    4.6110   17.8780 H   0  0  0  0  0  0  0  0  0  0  0  0
    1.4280    5.3010   19.4790 H   0  0  0  0  0  0  0  0  0  0  0  0
    3.0060    3.5650   20.1730 H   0  0  0  0  0  0  0  0  0  0  0  0
    1.5260    2.8320   19.5910 H   0  0  0  0  0  0  0  0  0  0  0  0
    4.1050    2.1720   18.7780 H   0  0  0  0  0  0  0  0  0  0  0  0
    2.6330    1.6990   17.9610 H   0  0  0  0  0  0  0  0  0  0  0  0
    4.4230    2.8170   16.4970 H   0  0  0  0  0  0  0  0  0  0  0  0
    2.7690    3.3870   16.3490 H   0  0  0  0  0  0  0  0  0  0  0  0
    4.0800    5.3270   16.3580 H   0  0  0  0  0  0  0  0  0  0  0  0
    0.9110    9.6500   19.5070 C   0  0  0  0  0  0  0  0  0  0  0  0
    0.6870    9.1650   20.7980 C   0  0  0  0  0  0  0  0  0  0  0  0
    1.2460    7.9480   21.2060 C   0  0  0  0  0  0  0  0  0  0  0  0
    2.0240    7.2030   20.3210 C   0  0  0  0  0  0  0  0  0  0  0  0
    2.2310    7.6790   19.0240 C   0  0  0  0  0  0  0  0  0  0  0  0
    1.6990    8.9070   18.6240 C   0  0  0  0  0  0  0  0  0  0  0  0
    0.1060    9.7200   21.5280 H   0  0  0  0  0  0  0  0  0  0  0  0
    1.0870    7.5920   22.2200 H   0  0  0  0  0  0  0  0  0  0  0  0
    2.4780    6.2700   20.6450 H   0  0  0  0  0  0  0  0  0  0  0  0
    1.9040    9.2870   17.6260 H   0  0  0  0  0  0  0  0  0  0  0  0
    0.4440   10.8270   18.9930 O   0  0  0  0  0  0  0  0  0  0  0  0
   -0.8100   11.3360   19.4720 C   0  0  0  0  0  0  0  0  0  0  0  0
   -0.7220   12.3960   19.7450 H   0  0  0  0  0  0  0  0  0  0  0  0
   -1.0050   10.8050   20.4110 H   0  0  0  0  0  0  0  0  0  0  0  0
   -3.8250   11.3110   17.6110 C   0  0  0  0  0  0  0  0  0  0  0  0
   -3.0790   11.9160   18.5070 N   0  0  0  0  0  0  0  0  0  0  0  0
   -1.9770   11.0960   18.5710 C   0  0  0  0  0  0  0  0  0  0  0  0
   -2.0290   10.0280   17.7590 N   0  0  0  0  0  0  0  0  0  0  0  0
   -3.2610   10.1720   17.1170 O   0  0  0  0  0  0  0  0  0  0  0  0
   -5.1460   11.6840   17.0790 C   0  0  0  0  0  0  0  0  0  0  0  0
   -5.8150   10.8170   17.0620 H   0  0  0  0  0  0  0  0  0  0  0  0
   -5.6050   12.4580   17.7030 H   0  0  0  0  0  0  0  0  0  0  0  0
   -5.0570   12.0680   16.0580 H   0  0  0  0  0  0  0  0  0  0  0  0
    5.4330    4.8930   17.9240 C   0  0  0  0  0  0  0  0  0  0  0  0
    6.6940    4.7510   17.2990 C   0  0  0  0  0  0  0  0  0  0  0  0
    7.7170    4.8910   18.1470 N   0  0  0  0  0  0  0  0  0  0  0  0
    7.1170    5.0890   19.3300 N   0  0  0  0  0  0  0  0  0  0  0  0
    5.7560    5.1200   19.2480 C   0  0  0  0  0  0  0  0  0  0  0  0
    6.9120    4.5510   16.2590 H   0  0  0  0  0  0  0  0  0  0  0  0
    7.6980    5.1950   20.1550 H   0  0  0  0  0  0  0  0  0  0  0  0
    5.1430    5.2690   20.1250 H   0  0  0  0  0  0  0  0  0  0  0  0
  1  3  1  0  0  0  0
  1 22  1  0  0  0  0
  2  1  2  0  0  0  0
  3  4  1  0  0  0  0
  4  5  1  0  0  0  0
  4 10  1  0  0  0  0
  5 12  1  0  0  0  0
  5 11  1  0  0  0  0
  6 13  1  0  0  0  0
  6  5  1  0  0  0  0
  7  8  1  0  0  0  0
  7  6  1  0  0  0  0
  8 17  1  6  0  0  0
  8 41  1  0  0  0  0
  8  3  1  0  0  0  0
  9  4  1  0  0  0  0
 14  6  1  0  0  0  0
 15  7  1  0  0  0  0
 16  7  1  0  0  0  0
 18 19  1  0  0  0  0
 19 20  2  0  0  0  0
 19 24  1  0  0  0  0
 20 25  1  0  0  0  0
 21 26  1  0  0  0  0
 21 20  1  0  0  0  0
 22 21  2  0  0  0  0
 23 22  1  0  0  0  0
 23 18  2  0  0  0  0
 27 23  1  0  0  0  0
 28 29  1  0  0  0  0
 28 18  1  0  0  0  0
 29 30  1  0  0  0  0
 29 31  1  0  0  0  0
 32 33  2  0  0  0  0
 33 34  1  0  0  0  0
 34 29  1  0  0  0  0
 35 34  2  0  0  0  0
 36 32  1  0  0  0  0
 36 35  1  0  0  0  0
 37 32  1  0  0  0  0
 37 39  1  0  0  0  0
 38 37  1  0  0  0  0
 40 37  1  0  0  0  0
 41 45  2  0  0  0  0
 42 41  1  0  0  0  0
 42 43  2  0  0  0  0
 43 44  1  0  0  0  0
 44 47  1  0  0  0  0
 45 44  1  0  0  0  0
 45 48  1  0  0  0  0
 46 42  1  0  0  0  0
M  END
>  <MODEL>
2

>  <REMARK>
 VINA RESULT:    -8.681      0.896      1.100
 INTER + INTRA:         -10.852
 INTER:                 -10.627
 INTRA:                  -0.225
 UNBOUND:                 0.621
  Name = 
  6 active torsions:
  status: ('A' for Active; 'I' for Inactive)
    1  A    between atoms: C_1  and  C_2
    2  A    between atoms: C_4  and  C_5
    3  A    between atoms: C_5  and  O_6
    4  A    between atoms: O_6  and  C_7
    5  A    between atoms: C_11  and  C_12
    6  A    between atoms: C_19  and  C_20
                            x       y       z     vdW  Elec       q    Type
                         _______ _______ _______ _____ _____    ______ ____

>  <TORSDO>
F 6

$$$$
=
 OpenBabel07192307433D

 48 51  0  0  1  0  0  0  0  0999 V2000
    3.1160    6.9410   17.9030 C   0  0  0  0  0  0  0  0  0  0  0  0
    3.7920    7.5420   17.0700 O   0  0  0  0  0  0  0  0  0  0  0  0
    3.1260    5.5490   18.0620 N   0  0  0  0  0  0  0  0  0  0  0  0
    1.9620    4.8130   18.5630 C   0  0  0  0  0  0  0  0  0  0  0  0
    2.3560    3.4780   19.1820 C   0  0  0  0  0  0  0  0  0  0  0  0
    3.1880    2.6060   18.2430 C   0  0  0  0  0  0  0  0  0  0  0  0
    3.6570    3.3450   16.9900 C   0  0  0  0  0  0  0  0  0  0  0  0
    4.0930    4.7960   17.2530 C   0  0  2  0  0  0  0  0  0  0  0  0
    1.2860    4.6590   17.7130 H   0  0  0  0  0  0  0  0  0  0  0  0
    1.4010    5.3980   19.2960 H   0  0  0  0  0  0  0  0  0  0  0  0
    2.9260    3.6630   20.1000 H   0  0  0  0  0  0  0  0  0  0  0  0
    1.4560    2.9330   19.4900 H   0  0  0  0  0  0  0  0  0  0  0  0
    4.0520    2.2100   18.7910 H   0  0  0  0  0  0  0  0  0  0  0  0
    2.6020    1.7310   17.9370 H   0  0  0  0  0  0  0  0  0  0  0  0
    4.4580    2.7750   16.5030 H   0  0  0  0  0  0  0  0  0  0  0  0
    2.8200    3.3640   16.2780 H   0  0  0  0  0  0  0  0  0  0  0  0
    4.1600    5.2840   16.2720 H   0  0  0  0  0  0  0  0  0  0  0  0
    0.8300    9.6780   19.1170 C   0  0  0  0  0  0  0  0  0  0  0  0
    0.6690    9.3150   20.4570 C   0  0  0  0  0  0  0  0  0  0  0  0
    1.3120    8.1810   20.9680 C   0  0  0  0  0  0  0  0  0  0  0  0
    2.1110    7.3960   20.1380 C   0  0  0  0  0  0  0  0  0  0  0  0
    2.2550    7.7480   18.7930 C   0  0  0  0  0  0  0  0  0  0  0  0
    1.6390    8.8950   18.2900 C   0  0  0  0  0  0  0  0  0  0  0  0
    0.0750    9.9070   21.1460 H   0  0  0  0  0  0  0  0  0  0  0  0
    1.2020    7.9220   22.0170 H   0  0  0  0  0  0  0  0  0  0  0  0
    2.6310    6.5300   20.5390 H   0  0  0  0  0  0  0  0  0  0  0  0
    1.7940    9.1830   17.2520 H   0  0  0  0  0  0  0  0  0  0  0  0
    0.2790   10.7660   18.5030 O   0  0  0  0  0  0  0  0  0  0  0  0
    0.1740   11.9930   19.2420 C   0  0  0  0  0  0  0  0  0  0  0  0
   -0.2430   11.8130   20.2410 H   0  0  0  0  0  0  0  0  0  0  0  0
   -0.5750   12.5940   18.7130 H   0  0  0  0  0  0  0  0  0  0  0  0
    3.1120   13.9090   18.7400 C   0  0  0  0  0  0  0  0  0  0  0  0
    2.0820   13.2960   18.2040 N   0  0  0  0  0  0  0  0  0  0  0  0
    1.4290   12.8010   19.3080 C   0  0  0  0  0  0  0  0  0  0  0  0
    2.0200   13.0860   20.4790 N   0  0  0  0  0  0  0  0  0  0  0  0
    3.1410   13.8280   20.1020 O   0  0  0  0  0  0  0  0  0  0  0  0
    4.2050   14.6560   18.0950 C   0  0  0  0  0  0  0  0  0  0  0  0
    3.8060   15.4280   17.4290 H   0  0  0  0  0  0  0  0  0  0  0  0
    4.8310   15.1440   18.8490 H   0  0  0  0  0  0  0  0  0  0  0  0
    4.8340   13.9840   17.5030 H   0  0  0  0  0  0  0  0  0  0  0  0
    5.4500    4.8820   17.8970 C   0  0  0  0  0  0  0  0  0  0  0  0
    6.7310    4.7180   17.3190 C   0  0  0  0  0  0  0  0  0  0  0  0
    7.7260    4.8650   18.1990 N   0  0  0  0  0  0  0  0  0  0  0  0
    7.0870    5.0900   19.3570 N   0  0  0  0  0  0  0  0  0  0  0  0
    5.7300    5.1310   19.2270 C   0  0  0  0  0  0  0  0  0  0  0  0
    6.9830    4.4960   16.2910 H   0  0  0  0  0  0  0  0  0  0  0  0
    7.6410    5.2070   20.2000 H   0  0  0  0  0  0  0  0  0  0  0  0
    5.0880    5.3020   20.0800 H   0  0  0  0  0  0  0  0  0  0  0  0
  1  3  1  0  0  0  0
  1 22  1  0  0  0  0
  2  1  2  0  0  0  0
  3  4  1  0  0  0  0
  4  5  1  0  0  0  0
  4 10  1  0  0  0  0
  5 12  1  0  0  0  0
  5 11  1  0  0  0  0
  6 13  1  0  0  0  0
  6  5  1  0  0  0  0
  7  8  1  0  0  0  0
  7  6  1  0  0  0  0
  8 17  1  6  0  0  0
  8 41  1  0  0  0  0
  8  3  1  0  0  0  0
  9  4  1  0  0  0  0
 14  6  1  0  0  0  0
 15  7  1  0  0  0  0
 16  7  1  0  0  0  0
 18 19  1  0  0  0  0
 19 20  2  0  0  0  0
 19 24  1  0  0  0  0
 20 25  1  0  0  0  0
 21 26  1  0  0  0  0
 21 20  1  0  0  0  0
 22 21  2  0  0  0  0
 23 22  1  0  0  0  0
 23 18  2  0  0  0  0
 27 23  1  0  0  0  0
 28 18  1  0  0  0  0
 28 29  1  0  0  0  0
 29 34  1  0  0  0  0
 29 30  1  0  0  0  0
 31 29  1  0  0  0  0
 32 36  1  0  0  0  0
 33 32  2  0  0  0  0
 33 34  1  0  0  0  0
 34 35  2  0  0  0  0
 36 35  1  0  0  0  0
 37 32  1  0  0  0  0
 37 39  1  0  0  0  0
 38 37  1  0  0  0  0
 40 37  1  0  0  0  0
 41 45  2  0  0  0  0
 42 41  1  0  0  0  0
 42 43  2  0  0  0  0
 43 44  1  0  0  0  0
 44 47  1  0  0  0  0
 45 44  1  0  0  0  0
 45 48  1  0  0  0  0
 46 42  1  0  0  0  0
M  END
>  <MODEL>
3

>  <REMARK>
 VINA RESULT:    -8.557      2.466      3.356
 INTER + INTRA:         -10.688
 INTER:                 -10.235
 INTRA:                  -0.453
 UNBOUND:                 0.621
  Name = 
  6 active torsions:
  status: ('A' for Active; 'I' for Inactive)
    1  A    between atoms: C_1  and  C_2
    2  A    between atoms: C_4  and  C_5
    3  A    between atoms: C_5  and  O_6
    4  A    between atoms: O_6  and  C_7
    5  A    between atoms: C_11  and  C_12
    6  A    between atoms: C_19  and  C_20
                            x       y       z     vdW  Elec       q    Type
                         _______ _______ _______ _____ _____    ______ ____

>  <TORSDO>
F 6

$$$$
=
 OpenBabel07192307433D

 48 51  0  0  1  0  0  0  0  0999 V2000
    3.1230    6.9590   17.9430 C   0  0  0  0  0  0  0  0  0  0  0  0
    3.7960    7.5590   17.1060 O   0  0  0  0  0  0  0  0  0  0  0  0
    3.1490    5.5700   18.1190 N   0  0  0  0  0  0  0  0  0  0  0  0
    1.9920    4.8250   18.6240 C   0  0  0  0  0  0  0  0  0  0  0  0
    2.3990    3.5030   19.2600 C   0  0  0  0  0  0  0  0  0  0  0  0
    3.2470    2.6310   18.3360 C   0  0  0  0  0  0  0  0  0  0  0  0
    3.7130    3.3600   17.0770 C   0  0  0  0  0  0  0  0  0  0  0  0
    4.1300    4.8190   17.3250 C   0  0  2  0  0  0  0  0  0  0  0  0
    1.3220    4.6520   17.7720 H   0  0  0  0  0  0  0  0  0  0  0  0
    1.4200    5.4120   19.3460 H   0  0  0  0  0  0  0  0  0  0  0  0
    2.9630    3.7060   20.1790 H   0  0  0  0  0  0  0  0  0  0  0  0
    1.5050    2.9500   19.5700 H   0  0  0  0  0  0  0  0  0  0  0  0
    4.1130    2.2520   18.8930 H   0  0  0  0  0  0  0  0  0  0  0  0
    2.6740    1.7440   18.0380 H   0  0  0  0  0  0  0  0  0  0  0  0
    4.5240    2.7950   16.6010 H   0  0  0  0  0  0  0  0  0  0  0  0
    2.8800    3.3590   16.3610 H   0  0  0  0  0  0  0  0  0  0  0  0
    4.1960    5.2960   16.3370 H   0  0  0  0  0  0  0  0  0  0  0  0
    0.7700    9.6630   19.1030 C   0  0  0  0  0  0  0  0  0  0  0  0
    0.6330    9.3340   20.4550 C   0  0  0  0  0  0  0  0  0  0  0  0
    1.3140    8.2340   20.9900 C   0  0  0  0  0  0  0  0  0  0  0  0
    2.1270    7.4490   20.1750 C   0  0  0  0  0  0  0  0  0  0  0  0
    2.2480    7.7660   18.8190 C   0  0  0  0  0  0  0  0  0  0  0  0
    1.5930    8.8800   18.2900 C   0  0  0  0  0  0  0  0  0  0  0  0
    0.0280    9.9280   21.1330 H   0  0  0  0  0  0  0  0  0  0  0  0
    1.2210    8.0020   22.0480 H   0  0  0  0  0  0  0  0  0  0  0  0
    2.6750    6.6100   20.5950 H   0  0  0  0  0  0  0  0  0  0  0  0
    1.7300    9.1420   17.2430 H   0  0  0  0  0  0  0  0  0  0  0  0
    0.1810   10.7170   18.4640 O   0  0  0  0  0  0  0  0  0  0  0  0
   -1.0570   10.4950   17.7710 C   0  0  0  0  0  0  0  0  0  0  0  0
   -1.2530    9.4210   17.6550 H   0  0  0  0  0  0  0  0  0  0  0  0
   -0.9000   10.8770   16.7550 H   0  0  0  0  0  0  0  0  0  0  0  0
   -3.4420   12.3720   19.5990 C   0  0  0  0  0  0  0  0  0  0  0  0
   -2.1990   11.9610   19.4920 N   0  0  0  0  0  0  0  0  0  0  0  0
   -2.2380   11.2110   18.3400 C   0  0  0  0  0  0  0  0  0  0  0  0
   -3.4450   11.1500   17.7550 N   0  0  0  0  0  0  0  0  0  0  0  0
   -4.2480   11.9270   18.5930 O   0  0  0  0  0  0  0  0  0  0  0  0
   -4.0670   13.2250   20.6240 C   0  0  0  0  0  0  0  0  0  0  0  0
   -5.1100   12.9350   20.7850 H   0  0  0  0  0  0  0  0  0  0  0  0
   -3.5350   13.1330   21.5750 H   0  0  0  0  0  0  0  0  0  0  0  0
   -4.0480   14.2750   20.3150 H   0  0  0  0  0  0  0  0  0  0  0  0
    5.4830    4.9300   17.9740 C   0  0  0  0  0  0  0  0  0  0  0  0
    6.7680    4.7740   17.4040 C   0  0  0  0  0  0  0  0  0  0  0  0
    7.7560    4.9450   18.2870 N   0  0  0  0  0  0  0  0  0  0  0  0
    7.1090    5.1770   19.4390 N   0  0  0  0  0  0  0  0  0  0  0  0
    5.7530    5.2000   19.3020 C   0  0  0  0  0  0  0  0  0  0  0  0
    7.0280    4.5420   16.3810 H   0  0  0  0  0  0  0  0  0  0  0  0
    7.6570    5.3110   20.2830 H   0  0  0  0  0  0  0  0  0  0  0  0
    5.1040    5.3740   20.1490 H   0  0  0  0  0  0  0  0  0  0  0  0
  1  3  1  0  0  0  0
  1 22  1  0  0  0  0
  2  1  2  0  0  0  0
  3  4  1  0  0  0  0
  4  5  1  0  0  0  0
  4 10  1  0  0  0  0
  5 12  1  0  0  0  0
  5 11  1  0  0  0  0
  6 13  1  0  0  0  0
  6  5  1  0  0  0  0
  7  8  1  0  0  0  0
  7  6  1  0  0  0  0
  8 17  1  6  0  0  0
  8 41  1  0  0  0  0
  8  3  1  0  0  0  0
  9  4  1  0  0  0  0
 14  6  1  0  0  0  0
 15  7  1  0  0  0  0
 16  7  1  0  0  0  0
 18 19  1  0  0  0  0
 19 20  2  0  0  0  0
 19 24  1  0  0  0  0
 20 25  1  0  0  0  0
 21 26  1  0  0  0  0
 21 20  1  0  0  0  0
 22 21  2  0  0  0  0
 23 22  1  0  0  0  0
 23 18  2  0  0  0  0
 27 23  1  0  0  0  0
 28 18  1  0  0  0  0
 29 34  1  0  0  0  0
 29 28  1  0  0  0  0
 30 29  1  0  0  0  0
 31 29  1  0  0  0  0
 32 37  1  0  0  0  0
 33 32  2  0  0  0  0
 34 33  1  0  0  0  0
 35 34  2  0  0  0  0
 35 36  1  0  0  0  0
 36 32  1  0  0  0  0
 37 38  1  0  0  0  0
 37 39  1  0  0  0  0
 40 37  1  0  0  0  0
 41 45  2  0  0  0  0
 42 41  1  0  0  0  0
 42 43  2  0  0  0  0
 43 44  1  0  0  0  0
 44 47  1  0  0  0  0
 45 44  1  0  0  0  0
 45 48  1  0  0  0  0
 46 42  1  0  0  0  0
M  END
>  <MODEL>
4

>  <REMARK>
 VINA RESULT:    -8.552      1.125      1.762
 INTER + INTRA:         -10.681
 INTER:                 -10.283
 INTRA:                  -0.398
 UNBOUND:                 0.621
  Name = 
  6 active torsions:
  status: ('A' for Active; 'I' for Inactive)
    1  A    between atoms: C_1  and  C_2
    2  A    between atoms: C_4  and  C_5
    3  A    between atoms: C_5  and  O_6
    4  A    between atoms: O_6  and  C_7
    5  A    between atoms: C_11  and  C_12
    6  A    between atoms: C_19  and  C_20
                            x       y       z     vdW  Elec       q    Type
                         _______ _______ _______ _____ _____    ______ ____

>  <TORSDO>
F 6

$$$$
=
 OpenBabel07192307433D

 48 51  0  0  1  0  0  0  0  0999 V2000
    2.0790    8.8900   18.3230 C   0  0  0  0  0  0  0  0  0  0  0  0
    2.4610    9.7210   17.5010 O   0  0  0  0  0  0  0  0  0  0  0  0
    1.2380    9.1870   19.4030 N   0  0  0  0  0  0  0  0  0  0  0  0
    1.2760    8.4250   20.6540 C   0  0  0  0  0  0  0  0  0  0  0  0
   -0.0360    8.5210   21.4200 C   0  0  0  0  0  0  0  0  0  0  0  0
   -0.4760    9.9620   21.6740 C   0  0  0  0  0  0  0  0  0  0  0  0
    0.3490   10.9900   20.9020 C   0  0  0  0  0  0  0  0  0  0  0  0
    0.7030   10.5520   19.4710 C   0  0  2  0  0  0  0  0  0  0  0  0
    2.1020    8.8280   21.2540 H   0  0  0  0  0  0  0  0  0  0  0  0
    1.5140    7.3730   20.4780 H   0  0  0  0  0  0  0  0  0  0  0  0
   -0.8200    8.0000   20.8560 H   0  0  0  0  0  0  0  0  0  0  0  0
    0.0520    7.9890   22.3750 H   0  0  0  0  0  0  0  0  0  0  0  0
   -1.5380   10.0640   21.4180 H   0  0  0  0  0  0  0  0  0  0  0  0
   -0.4050   10.1850   22.7450 H   0  0  0  0  0  0  0  0  0  0  0  0
   -0.1710   11.9560   20.9010 H   0  0  0  0  0  0  0  0  0  0  0  0
    1.2870   11.1490   21.4520 H   0  0  0  0  0  0  0  0  0  0  0  0
    1.4870   11.2370   19.1210 H   0  0  0  0  0  0  0  0  0  0  0  0
    4.3320    5.9270   17.7430 C   0  0  0  0  0  0  0  0  0  0  0  0
    3.4040    4.8820   17.7460 C   0  0  0  0  0  0  0  0  0  0  0  0
    2.0400    5.1450   17.9300 C   0  0  0  0  0  0  0  0  0  0  0  0
    1.5990    6.4520   18.1240 C   0  0  0  0  0  0  0  0  0  0  0  0
    2.5300    7.4940   18.1410 C   0  0  0  0  0  0  0  0  0  0  0  0
    3.8860    7.2380   17.9280 C   0  0  0  0  0  0  0  0  0  0  0  0
    3.6970    3.8510   17.5780 H   0  0  0  0  0  0  0  0  0  0  0  0
    1.3240    4.3280   17.9050 H   0  0  0  0  0  0  0  0  0  0  0  0
    0.5390    6.6600   18.2430 H   0  0  0  0  0  0  0  0  0  0  0  0
    4.5950    8.0620   17.9000 H   0  0  0  0  0  0  0  0  0  0  0  0
    5.6800    5.8100   17.5540 O   0  0  0  0  0  0  0  0  0  0  0  0
    6.2010    4.5580   17.0810 C   0  0  0  0  0  0  0  0  0  0  0  0
    5.6140    3.7180   17.4730 H   0  0  0  0  0  0  0  0  0  0  0  0
    7.1950    4.4610   17.5350 H   0  0  0  0  0  0  0  0  0  0  0  0
    6.1210    3.8960   13.6010 C   0  0  0  0  0  0  0  0  0  0  0  0
    5.6040    3.6660   14.7860 N   0  0  0  0  0  0  0  0  0  0  0  0
    6.3740    4.4630   15.6000 C   0  0  0  0  0  0  0  0  0  0  0  0
    7.3290    5.1570   14.9590 N   0  0  0  0  0  0  0  0  0  0  0  0
    7.1580    4.7810   13.6250 O   0  0  0  0  0  0  0  0  0  0  0  0
    5.7430    3.3500   12.2870 C   0  0  0  0  0  0  0  0  0  0  0  0
    4.6960    3.5760   12.0600 H   0  0  0  0  0  0  0  0  0  0  0  0
    6.3660    3.7850   11.4990 H   0  0  0  0  0  0  0  0  0  0  0  0
    5.8690    2.2630   12.2690 H   0  0  0  0  0  0  0  0  0  0  0  0
   -0.4620   10.6750   18.5260 C   0  0  0  0  0  0  0  0  0  0  0  0
   -1.1540    9.6650   17.8170 C   0  0  0  0  0  0  0  0  0  0  0  0
   -2.1470   10.1430   17.0620 N   0  0  0  0  0  0  0  0  0  0  0  0
   -2.0760   11.4690   17.2530 N   0  0  0  0  0  0  0  0  0  0  0  0
   -1.1020   11.8350   18.1340 C   0  0  0  0  0  0  0  0  0  0  0  0
   -0.9770    8.5990   17.8190 H   0  0  0  0  0  0  0  0  0  0  0  0
   -2.7240   12.0660   16.7500 H   0  0  0  0  0  0  0  0  0  0  0  0
   -0.9290   12.8730   18.3820 H   0  0  0  0  0  0  0  0  0  0  0  0
  1  3  1  0  0  0  0
  2  1  2  0  0  0  0
  3  8  1  0  0  0  0
  3  4  1  0  0  0  0
  4  9  1  0  0  0  0
  4  5  1  0  0  0  0
  5  6  1  0  0  0  0
  5 12  1  0  0  0  0
  6 14  1  0  0  0  0
  7 16  1  0  0  0  0
  7  6  1  0  0  0  0
  8 17  1  6  0  0  0
  8  7  1  0  0  0  0
 10  4  1  0  0  0  0
 11  5  1  0  0  0  0
 13  6  1  0  0  0  0
 15  7  1  0  0  0  0
 18 19  2  0  0  0  0
 18 23  1  0  0  0  0
 19 20  1  0  0  0  0
 20 21  2  0  0  0  0
 21 22  1  0  0  0  0
 21 26  1  0  0  0  0
 22  1  1  0  0  0  0
 23 22  2  0  0  0  0
 24 19  1  0  0  0  0
 25 20  1  0  0  0  0
 27 23  1  0  0  0  0
 28 18  1  0  0  0  0
 29 30  1  0  0  0  0
 29 31  1  0  0  0  0
 29 28  1  0  0  0  0
 32 36  1  0  0  0  0
 32 33  2  0  0  0  0
 33 34  1  0  0  0  0
 34 29  1  0  0  0  0
 35 34  2  0  0  0  0
 36 35  1  0  0  0  0
 37 32  1  0  0  0  0
 38 37  1  0  0  0  0
 39 37  1  0  0  0  0
 40 37  1  0  0  0  0
 41  8  1  0  0  0  0
 42 46  1  0  0  0  0
 42 41  1  0  0  0  0
 43 44  1  0  0  0  0
 43 42  2  0  0  0  0
 44 45  1  0  0  0  0
 45 48  1  0  0  0  0
 45 41  2  0  0  0  0
 47 44  1  0  0  0  0
M  END
>  <MODEL>
5

>  <REMARK>
 VINA RESULT:    -8.322      2.439      8.313
 INTER + INTRA:         -10.377
 INTER:                  -9.827
 INTRA:                  -0.550
 UNBOUND:                 0.621
  Name = 
  6 active torsions:
  status: ('A' for Active; 'I' for Inactive)
    1  A    between atoms: C_1  and  C_2
    2  A    between atoms: C_4  and  C_5
    3  A    between atoms: C_5  and  O_6
    4  A    between atoms: O_6  and  C_7
    5  A    between atoms: C_11  and  C_12
    6  A    between atoms: C_19  and  C_20
                            x       y       z     vdW  Elec       q    Type
                         _______ _______ _______ _____ _____    ______ ____

>  <TORSDO>
F 6

$$$$
=
 OpenBabel07192307433D

 48 51  0  0  1  0  0  0  0  0999 V2000
    3.1740    6.2210   19.5220 C   0  0  0  0  0  0  0  0  0  0  0  0
    3.0120    5.6410   20.5940 O   0  0  0  0  0  0  0  0  0  0  0  0
    4.0800    5.8050   18.5370 N   0  0  0  0  0  0  0  0  0  0  0  0
    4.7060    6.7470   17.6050 C   0  0  0  0  0  0  0  0  0  0  0  0
    5.1620    6.0620   16.3240 C   0  0  0  0  0  0  0  0  0  0  0  0
    6.0730    4.8620   16.5790 C   0  0  0  0  0  0  0  0  0  0  0  0
    6.1340    4.4530   18.0500 C   0  0  0  0  0  0  0  0  0  0  0  0
    4.7800    4.5370   18.7730 C   0  0  2  0  0  0  0  0  0  0  0  0
    5.5600    7.1980   18.1260 H   0  0  0  0  0  0  0  0  0  0  0  0
    4.0340    7.5710   17.3530 H   0  0  0  0  0  0  0  0  0  0  0  0
    4.2810    5.7310   15.7610 H   0  0  0  0  0  0  0  0  0  0  0  0
    5.6770    6.7850   15.6800 H   0  0  0  0  0  0  0  0  0  0  0  0
    5.7350    4.0170   15.9680 H   0  0  0  0  0  0  0  0  0  0  0  0
    7.0890    5.0910   16.2340 H   0  0  0  0  0  0  0  0  0  0  0  0
    6.5660    3.4480   18.1360 H   0  0  0  0  0  0  0  0  0  0  0  0
    6.8360    5.1300   18.5580 H   0  0  0  0  0  0  0  0  0  0  0  0
    4.9970    4.4690   19.8480 H   0  0  0  0  0  0  0  0  0  0  0  0
    0.8580    9.1370   20.0940 C   0  0  0  0  0  0  0  0  0  0  0  0
    0.7480    9.6470   18.7970 C   0  0  0  0  0  0  0  0  0  0  0  0
    1.4240    9.0360   17.7340 C   0  0  0  0  0  0  0  0  0  0  0  0
    2.2240    7.9170   17.9630 C   0  0  0  0  0  0  0  0  0  0  0  0
    2.3500    7.4190   19.2620 C   0  0  0  0  0  0  0  0  0  0  0  0
    1.6520    8.0090   20.3190 C   0  0  0  0  0  0  0  0  0  0  0  0
    0.1210   10.5020   18.5670 H   0  0  0  0  0  0  0  0  0  0  0  0
    1.3110    9.4250   16.7260 H   0  0  0  0  0  0  0  0  0  0  0  0
    2.7290    7.4270   17.1350 H   0  0  0  0  0  0  0  0  0  0  0  0
    1.7240    7.5860   21.3190 H   0  0  0  0  0  0  0  0  0  0  0  0
    0.2380    9.6230   21.2090 O   0  0  0  0  0  0  0  0  0  0  0  0
    0.2220   11.0430   21.4220 C   0  0  0  0  0  0  0  0  0  0  0  0
    0.6230   11.5730   20.5490 H   0  0  0  0  0  0  0  0  0  0  0  0
    0.9360   11.2280   22.2340 H   0  0  0  0  0  0  0  0  0  0  0  0
   -2.7280   12.1640   23.0340 C   0  0  0  0  0  0  0  0  0  0  0  0
   -1.5520   11.5900   23.1460 N   0  0  0  0  0  0  0  0  0  0  0  0
   -1.0950   11.6040   21.8490 C   0  0  0  0  0  0  0  0  0  0  0  0
   -1.9430   12.1560   20.9650 N   0  0  0  0  0  0  0  0  0  0  0  0
   -3.0310   12.5320   21.7560 O   0  0  0  0  0  0  0  0  0  0  0  0
   -3.7340   12.4610   24.0680 C   0  0  0  0  0  0  0  0  0  0  0  0
   -4.6850   11.9740   23.8330 H   0  0  0  0  0  0  0  0  0  0  0  0
   -3.3960   12.1000   25.0440 H   0  0  0  0  0  0  0  0  0  0  0  0
   -3.9090   13.5390   24.1370 H   0  0  0  0  0  0  0  0  0  0  0  0
    3.8670    3.3930   18.4210 C   0  0  0  0  0  0  0  0  0  0  0  0
    2.8520    3.3250   17.4380 C   0  0  0  0  0  0  0  0  0  0  0  0
    2.2350    2.1400   17.4050 N   0  0  0  0  0  0  0  0  0  0  0  0
    2.8280    1.4510   18.3920 N   0  0  0  0  0  0  0  0  0  0  0  0
    3.8220    2.1470   19.0140 C   0  0  0  0  0  0  0  0  0  0  0  0
    2.5340    4.0890   16.7430 H   0  0  0  0  0  0  0  0  0  0  0  0
    2.5030    0.5100   18.5870 H   0  0  0  0  0  0  0  0  0  0  0  0
    4.3840    1.7150   19.8310 H   0  0  0  0  0  0  0  0  0  0  0  0
  1  2  2  0  0  0  0
  3  8  1  0  0  0  0
  3  1  1  0  0  0  0
  4  9  1  0  0  0  0
  4  3  1  0  0  0  0
  5  6  1  0  0  0  0
  5  4  1  0  0  0  0
  6  7  1  0  0  0  0
  7 15  1  0  0  0  0
  7 16  1  0  0  0  0
  7  8  1  0  0  0  0
  8 17  1  1  0  0  0
 10  4  1  0  0  0  0
 11  5  1  0  0  0  0
 12  5  1  0  0  0  0
 13  6  1  0  0  0  0
 14  6  1  0  0  0  0
 18 23  1  0  0  0  0
 18 28  1  0  0  0  0
 19 18  2  0  0  0  0
 20 21  2  0  0  0  0
 20 19  1  0  0  0  0
 21 22  1  0  0  0  0
 22  1  1  0  0  0  0
 22 23  2  0  0  0  0
 23 27  1  0  0  0  0
 24 19  1  0  0  0  0
 25 20  1  0  0  0  0
 26 21  1  0  0  0  0
 28 29  1  0  0  0  0
 29 34  1  0  0  0  0
 29 31  1  0  0  0  0
 30 29  1  0  0  0  0
 32 33  2  0  0  0  0
 32 37  1  0  0  0  0
 34 33  1  0  0  0  0
 35 36  1  0  0  0  0
 35 34  2  0  0  0  0
 36 32  1  0  0  0  0
 37 40  1  0  0  0  0
 37 39  1  0  0  0  0
 38 37  1  0  0  0  0
 41  8  1  0  0  0  0
 41 45  2  0  0  0  0
 42 41  1  0  0  0  0
 43 42  2  0  0  0  0
 43 44  1  0  0  0  0
 44 47  1  0  0  0  0
 44 45  1  0  0  0  0
 45 48  1  0  0  0  0
 46 42  1  0  0  0  0
M  END
>  <MODEL>
6

>  <REMARK>
 VINA RESULT:    -8.284      2.759      4.234
 INTER + INTRA:         -10.327
 INTER:                 -10.342
 INTRA:                   0.015
 UNBOUND:                 0.621
  Name = 
  6 active torsions:
  status: ('A' for Active; 'I' for Inactive)
    1  A    between atoms: C_1  and  C_2
    2  A    between atoms: C_4  and  C_5
    3  A    between atoms: C_5  and  O_6
    4  A    between atoms: O_6  and  C_7
    5  A    between atoms: C_11  and  C_12
    6  A    between atoms: C_19  and  C_20
                            x       y       z     vdW  Elec       q    Type
                         _______ _______ _______ _____ _____    ______ ____

>  <TORSDO>
F 6

$$$$
=
 OpenBabel07192307433D

 48 51  0  0  1  0  0  0  0  0999 V2000
    1.6320    9.2850   19.0530 C   0  0  0  0  0  0  0  0  0  0  0  0
    2.0200    9.8590   18.0360 O   0  0  0  0  0  0  0  0  0  0  0  0
    0.8640    9.8970   20.0520 N   0  0  0  0  0  0  0  0  0  0  0  0
    0.9210    9.4680   21.4520 C   0  0  0  0  0  0  0  0  0  0  0  0
   -0.3450    9.8380   22.2130 C   0  0  0  0  0  0  0  0  0  0  0  0
   -0.6910   11.3230   22.1110 C   0  0  0  0  0  0  0  0  0  0  0  0
    0.1520   12.0700   21.0790 C   0  0  0  0  0  0  0  0  0  0  0  0
    0.4100   11.2690   19.7930 C   0  0  2  0  0  0  0  0  0  0  0  0
    1.7970    9.9520   21.9020 H   0  0  0  0  0  0  0  0  0  0  0  0
    1.0910    8.3920   21.5370 H   0  0  0  0  0  0  0  0  0  0  0  0
   -1.1830    9.2470   21.8240 H   0  0  0  0  0  0  0  0  0  0  0  0
   -0.2390    9.5560   23.2670 H   0  0  0  0  0  0  0  0  0  0  0  0
   -1.7560   11.4290   21.8750 H   0  0  0  0  0  0  0  0  0  0  0  0
   -0.5540   11.8000   23.0900 H   0  0  0  0  0  0  0  0  0  0  0  0
   -0.3120   13.0390   20.8540 H   0  0  0  0  0  0  0  0  0  0  0  0
    1.1240   12.2980   21.5400 H   0  0  0  0  0  0  0  0  0  0  0  0
    1.2130   11.7910   19.2560 H   0  0  0  0  0  0  0  0  0  0  0  0
    3.0400    5.8700   18.3160 C   0  0  0  0  0  0  0  0  0  0  0  0
    2.6500    5.1690   19.4600 C   0  0  0  0  0  0  0  0  0  0  0  0
    1.9200    5.8080   20.4700 C   0  0  0  0  0  0  0  0  0  0  0  0
    1.5870    7.1560   20.3470 C   0  0  0  0  0  0  0  0  0  0  0  0
    1.9950    7.8620   19.2120 C   0  0  0  0  0  0  0  0  0  0  0  0
    2.6970    7.2180   18.1900 C   0  0  0  0  0  0  0  0  0  0  0  0
    2.8670    4.1130   19.5900 H   0  0  0  0  0  0  0  0  0  0  0  0
    1.5990    5.2470   21.3430 H   0  0  0  0  0  0  0  0  0  0  0  0
    0.9990    7.6470   21.1180 H   0  0  0  0  0  0  0  0  0  0  0  0
    2.9710    7.7670   17.2920 H   0  0  0  0  0  0  0  0  0  0  0  0
    3.7330    5.3610   17.2530 O   0  0  0  0  0  0  0  0  0  0  0  0
    4.9930    4.7180   17.4990 C   0  0  0  0  0  0  0  0  0  0  0  0
    5.2410    4.0230   16.6870 H   0  0  0  0  0  0  0  0  0  0  0  0
    4.8370    4.0920   18.3860 H   0  0  0  0  0  0  0  0  0  0  0  0
    7.3700    7.3270   17.8080 C   0  0  0  0  0  0  0  0  0  0  0  0
    6.2310    6.9190   17.2980 N   0  0  0  0  0  0  0  0  0  0  0  0
    6.1280    5.6420   17.7980 C   0  0  0  0  0  0  0  0  0  0  0  0
    7.1520    5.2660   18.5800 N   0  0  0  0  0  0  0  0  0  0  0  0
    7.9790    6.3910   18.5900 O   0  0  0  0  0  0  0  0  0  0  0  0
    8.0570    8.6210   17.6610 C   0  0  0  0  0  0  0  0  0  0  0  0
    7.3650    9.4500   17.8420 H   0  0  0  0  0  0  0  0  0  0  0  0
    8.8810    8.7000   18.3780 H   0  0  0  0  0  0  0  0  0  0  0  0
    8.4640    8.7300   16.6510 H   0  0  0  0  0  0  0  0  0  0  0  0
   -0.7910   11.2300   18.8870 C   0  0  0  0  0  0  0  0  0  0  0  0
   -1.6190   10.1370   18.5390 C   0  0  0  0  0  0  0  0  0  0  0  0
   -2.6040   10.4730   17.7010 N   0  0  0  0  0  0  0  0  0  0  0  0
   -2.3930   11.7790   17.4770 N   0  0  0  0  0  0  0  0  0  0  0  0
   -1.3370   12.2830   18.1770 C   0  0  0  0  0  0  0  0  0  0  0  0
   -1.5470    9.1080   18.8610 H   0  0  0  0  0  0  0  0  0  0  0  0
   -3.0080   12.2650   16.8330 H   0  0  0  0  0  0  0  0  0  0  0  0
   -1.0490   13.3210   18.0920 H   0  0  0  0  0  0  0  0  0  0  0  0
  1 22  1  0  0  0  0
  1  3  1  0  0  0  0
  2  1  2  0  0  0  0
  3  4  1  0  0  0  0
  4 10  1  0  0  0  0
  4  9  1  0  0  0  0
  4  5  1  0  0  0  0
  5 12  1  0  0  0  0
  6  5  1  0  0  0  0
  6 14  1  0  0  0  0
  7 16  1  0  0  0  0
  7  6  1  0  0  0  0
  8 17  1  6  0  0  0
  8  3  1  0  0  0  0
  8  7  1  0  0  0  0
 11  5  1  0  0  0  0
 13  6  1  0  0  0  0
 15  7  1  0  0  0  0
 18 19  1  0  0  0  0
 19 24  1  0  0  0  0
 19 20  2  0  0  0  0
 20 25  1  0  0  0  0
 21 20  1  0  0  0  0
 21 26  1  0  0  0  0
 22 21  2  0  0  0  0
 23 18  2  0  0  0  0
 23 22  1  0  0  0  0
 27 23  1  0  0  0  0
 28 29  1  0  0  0  0
 28 18  1  0  0  0  0
 29 34  1  0  0  0  0
 29 31  1  0  0  0  0
 30 29  1  0  0  0  0
 32 36  1  0  0  0  0
 33 34  1  0  0  0  0
 33 32  2  0  0  0  0
 34 35  2  0  0  0  0
 35 36  1  0  0  0  0
 37 32  1  0  0  0  0
 37 38  1  0  0  0  0
 37 39  1  0  0  0  0
 40 37  1  0  0  0  0
 41  8  1  0  0  0  0
 42 46  1  0  0  0  0
 42 41  1  0  0  0  0
 43 42  2  0  0  0  0
 44 43  1  0  0  0  0
 44 45  1  0  0  0  0
 45 41  2  0  0  0  0
 47 44  1  0  0  0  0
 48 45  1  0  0  0  0
M  END
>  <MODEL>
7

>  <REMARK>
 VINA RESULT:    -8.207      2.131      8.346
 INTER + INTRA:         -10.225
 INTER:                 -10.388
 INTRA:                   0.163
 UNBOUND:                 0.621
  Name = 
  6 active torsions:
  status: ('A' for Active; 'I' for Inactive)
    1  A    between atoms: C_1  and  C_2
    2  A    between atoms: C_4  and  C_5
    3  A    between atoms: C_5  and  O_6
    4  A    between atoms: O_6  and  C_7
    5  A    between atoms: C_11  and  C_12
    6  A    between atoms: C_19  and  C_20
                            x       y       z     vdW  Elec       q    Type
                         _______ _______ _______ _____ _____    ______ ____

>  <TORSDO>
F 6

$$$$
=
 OpenBabel07192307433D

 48 51  0  0  1  0  0  0  0  0999 V2000
    3.5080    6.9180   17.5120 C   0  0  0  0  0  0  0  0  0  0  0  0
    4.3050    7.4090   16.7140 O   0  0  0  0  0  0  0  0  0  0  0  0
    3.4690    5.5570   17.8420 N   0  0  0  0  0  0  0  0  0  0  0  0
    2.2330    4.8910   18.2620 C   0  0  0  0  0  0  0  0  0  0  0  0
    2.5110    3.6440   19.0900 C   0  0  0  0  0  0  0  0  0  0  0  0
    3.4500    2.6600   18.3930 C   0  0  0  0  0  0  0  0  0  0  0  0
    4.1020    3.2360   17.1370 C   0  0  0  0  0  0  0  0  0  0  0  0
    4.5250    4.7070   17.2770 C   0  0  2  0  0  0  0  0  0  0  0  0
    1.6790    4.6320   17.3500 H   0  0  0  0  0  0  0  0  0  0  0  0
    1.5860    5.5640   18.8300 H   0  0  0  0  0  0  0  0  0  0  0  0
    2.9510    3.9410   20.0500 H   0  0  0  0  0  0  0  0  0  0  0  0
    1.5670    3.1430   19.3340 H   0  0  0  0  0  0  0  0  0  0  0  0
    4.2210    2.3340   19.1020 H   0  0  0  0  0  0  0  0  0  0  0  0
    2.8950    1.7540   18.1190 H   0  0  0  0  0  0  0  0  0  0  0  0
    4.9530    2.6080   16.8420 H   0  0  0  0  0  0  0  0  0  0  0  0
    3.3740    3.1660   16.3180 H   0  0  0  0  0  0  0  0  0  0  0  0
    4.7380    5.0680   16.2620 H   0  0  0  0  0  0  0  0  0  0  0  0
    1.3360    8.5000   20.1520 C   0  0  0  0  0  0  0  0  0  0  0  0
    0.7050    9.5030   19.4110 C   0  0  0  0  0  0  0  0  0  0  0  0
    0.9820    9.6590   18.0470 C   0  0  0  0  0  0  0  0  0  0  0  0
    1.9010    8.8200   17.4190 C   0  0  0  0  0  0  0  0  0  0  0  0
    2.5470    7.8310   18.1650 C   0  0  0  0  0  0  0  0  0  0  0  0
    2.2490    7.6540   19.5180 C   0  0  0  0  0  0  0  0  0  0  0  0
   -0.0340   10.1660   19.8510 H   0  0  0  0  0  0  0  0  0  0  0  0
    0.4670   10.4250   17.4740 H   0  0  0  0  0  0  0  0  0  0  0  0
    2.0990    8.9250   16.3560 H   0  0  0  0  0  0  0  0  0  0  0  0
    2.7260    6.8530   20.0780 H   0  0  0  0  0  0  0  0  0  0  0  0
    1.1390    8.2290   21.4770 O   0  0  0  0  0  0  0  0  0  0  0  0
    1.3290    9.2860   22.4300 C   0  0  0  0  0  0  0  0  0  0  0  0
    2.2300    9.8680   22.1940 H   0  0  0  0  0  0  0  0  0  0  0  0
    1.5400    8.7890   23.3840 H   0  0  0  0  0  0  0  0  0  0  0  0
   -1.1460   11.8180   22.5630 C   0  0  0  0  0  0  0  0  0  0  0  0
    0.0250   11.4340   22.1090 N   0  0  0  0  0  0  0  0  0  0  0  0
    0.1440   10.1700   22.6390 C   0  0  0  0  0  0  0  0  0  0  0  0
   -0.8990    9.7810   23.3900 N   0  0  0  0  0  0  0  0  0  0  0  0
   -1.7610   10.8790   23.3380 O   0  0  0  0  0  0  0  0  0  0  0  0
   -1.8690   13.0840   22.3530 C   0  0  0  0  0  0  0  0  0  0  0  0
   -2.5870   13.2570   23.1600 H   0  0  0  0  0  0  0  0  0  0  0  0
   -1.1690   13.9250   22.3320 H   0  0  0  0  0  0  0  0  0  0  0  0
   -2.4160   13.0630   21.4060 H   0  0  0  0  0  0  0  0  0  0  0  0
    5.7810    4.8720   18.0900 C   0  0  0  0  0  0  0  0  0  0  0  0
    7.1310    4.7170   17.6980 C   0  0  0  0  0  0  0  0  0  0  0  0
    7.9940    4.9430   18.6920 N   0  0  0  0  0  0  0  0  0  0  0  0
    7.2000    5.2100   19.7400 N   0  0  0  0  0  0  0  0  0  0  0  0
    5.8730    5.2010   19.4280 C   0  0  0  0  0  0  0  0  0  0  0  0
    7.5250    4.4480   16.7270 H   0  0  0  0  0  0  0  0  0  0  0  0
    7.6320    5.3900   20.6410 H   0  0  0  0  0  0  0  0  0  0  0  0
    5.1180    5.3970   20.1770 H   0  0  0  0  0  0  0  0  0  0  0  0
  1  3  1  0  0  0  0
  1 22  1  0  0  0  0
  2  1  2  0  0  0  0
  3  4  1  0  0  0  0
  4 10  1  0  0  0  0
  4  5  1  0  0  0  0
  5 12  1  0  0  0  0
  5 11  1  0  0  0  0
  6  5  1  0  0  0  0
  6 13  1  0  0  0  0
  7  8  1  0  0  0  0
  7  6  1  0  0  0  0
  8 17  1  6  0  0  0
  8  3  1  0  0  0  0
  8 41  1  0  0  0  0
  9  4  1  0  0  0  0
 14  6  1  0  0  0  0
 15  7  1  0  0  0  0
 16  7  1  0  0  0  0
 18 28  1  0  0  0  0
 19 24  1  0  0  0  0
 19 18  2  0  0  0  0
 20 19  1  0  0  0  0
 21 20  2  0  0  0  0
 21 22  1  0  0  0  0
 22 23  2  0  0  0  0
 23 27  1  0  0  0  0
 23 18  1  0  0  0  0
 25 20  1  0  0  0  0
 26 21  1  0  0  0  0
 28 29  1  0  0  0  0
 29 34  1  0  0  0  0
 29 31  1  0  0  0  0
 30 29  1  0  0  0  0
 32 36  1  0  0  0  0
 33 32  2  0  0  0  0
 33 34  1  0  0  0  0
 34 35  2  0  0  0  0
 36 35  1  0  0  0  0
 37 32  1  0  0  0  0
 37 38  1  0  0  0  0
 39 37  1  0  0  0  0
 40 37  1  0  0  0  0
 41 45  2  0  0  0  0
 42 41  1  0  0  0  0
 42 43  2  0  0  0  0
 43 44  1  0  0  0  0
 44 47  1  0  0  0  0
 45 44  1  0  0  0  0
 45 48  1  0  0  0  0
 46 42  1  0  0  0  0
M  END
>  <MODEL>
8

>  <REMARK>
 VINA RESULT:    -8.168      2.787      3.592
 INTER + INTRA:         -10.173
 INTER:                  -9.989
 INTRA:                  -0.184
 UNBOUND:                 0.621
  Name = 
  6 active torsions:
  status: ('A' for Active; 'I' for Inactive)
    1  A    between atoms: C_1  and  C_2
    2  A    between atoms: C_4  and  C_5
    3  A    between atoms: C_5  and  O_6
    4  A    between atoms: O_6  and  C_7
    5  A    between atoms: C_11  and  C_12
    6  A    between atoms: C_19  and  C_20
                            x       y       z     vdW  Elec       q    Type
                         _______ _______ _______ _____ _____    ______ ____

>  <TORSDO>
F 6

$$$$
=
 OpenBabel07192307433D

 48 51  0  0  1  0  0  0  0  0999 V2000
    1.6030    9.3940   19.1930 C   0  0  0  0  0  0  0  0  0  0  0  0
    2.0230    9.9780   18.1940 O   0  0  0  0  0  0  0  0  0  0  0  0
    0.8330   10.0050   20.1910 N   0  0  0  0  0  0  0  0  0  0  0  0
    0.8550    9.5470   21.5830 C   0  0  0  0  0  0  0  0  0  0  0  0
   -0.4130    9.9350   22.3300 C   0  0  0  0  0  0  0  0  0  0  0  0
   -0.7190   11.4310   22.2530 C   0  0  0  0  0  0  0  0  0  0  0  0
    0.1610   12.1750   21.2510 C   0  0  0  0  0  0  0  0  0  0  0  0
    0.4200   11.3940   19.9520 C   0  0  2  0  0  0  0  0  0  0  0  0
    1.7350    9.9990   22.0580 H   0  0  0  0  0  0  0  0  0  0  0  0
    0.9960    8.4660   21.6490 H   0  0  0  0  0  0  0  0  0  0  0  0
   -1.2600    9.3740   21.9150 H   0  0  0  0  0  0  0  0  0  0  0  0
   -0.3340    9.6290   23.3800 H   0  0  0  0  0  0  0  0  0  0  0  0
   -1.7770   11.5690   22.0010 H   0  0  0  0  0  0  0  0  0  0  0  0
   -0.5870   11.8840   23.2430 H   0  0  0  0  0  0  0  0  0  0  0  0
   -0.2750   13.1600   21.0370 H   0  0  0  0  0  0  0  0  0  0  0  0
    1.1290   12.3690   21.7320 H   0  0  0  0  0  0  0  0  0  0  0  0
    1.2450   11.9060   19.4400 H   0  0  0  0  0  0  0  0  0  0  0  0
    2.9290    5.9570   18.4070 C   0  0  0  0  0  0  0  0  0  0  0  0
    2.5060    5.2450   19.5330 C   0  0  0  0  0  0  0  0  0  0  0  0
    1.7810    5.8840   20.5460 C   0  0  0  0  0  0  0  0  0  0  0  0
    1.4850    7.2430   20.4450 C   0  0  0  0  0  0  0  0  0  0  0  0
    1.9260    7.9590   19.3290 C   0  0  0  0  0  0  0  0  0  0  0  0
    2.6230    7.3160   18.3030 C   0  0  0  0  0  0  0  0  0  0  0  0
    2.6940    4.1820   19.6460 H   0  0  0  0  0  0  0  0  0  0  0  0
    1.4350    5.3160   21.4050 H   0  0  0  0  0  0  0  0  0  0  0  0
    0.9020    7.7340   21.2190 H   0  0  0  0  0  0  0  0  0  0  0  0
    2.9220    7.8740   17.4190 H   0  0  0  0  0  0  0  0  0  0  0  0
    3.6200    5.4500   17.3430 O   0  0  0  0  0  0  0  0  0  0  0  0
    5.0490    5.3470   17.4380 C   0  0  0  0  0  0  0  0  0  0  0  0
    5.3390    4.6900   18.2680 H   0  0  0  0  0  0  0  0  0  0  0  0
    5.4000    6.3480   17.7190 H   0  0  0  0  0  0  0  0  0  0  0  0
    6.1140    4.1890   14.2640 C   0  0  0  0  0  0  0  0  0  0  0  0
    5.1330    4.3130   15.1280 N   0  0  0  0  0  0  0  0  0  0  0  0
    5.7430    4.9700   16.1700 C   0  0  0  0  0  0  0  0  0  0  0  0
    7.0430    5.2430   15.9730 N   0  0  0  0  0  0  0  0  0  0  0  0
    7.2900    4.7250   14.7000 O   0  0  0  0  0  0  0  0  0  0  0  0
    6.1190    3.5740   12.9260 C   0  0  0  0  0  0  0  0  0  0  0  0
    5.3850    4.0590   12.2740 H   0  0  0  0  0  0  0  0  0  0  0  0
    7.1060    3.6730   12.4630 H   0  0  0  0  0  0  0  0  0  0  0  0
    5.8700    2.5100   12.9890 H   0  0  0  0  0  0  0  0  0  0  0  0
   -0.7660   11.4050   19.0260 C   0  0  0  0  0  0  0  0  0  0  0  0
   -1.7550   10.4140   18.8210 C   0  0  0  0  0  0  0  0  0  0  0  0
   -2.6690   10.7670   17.9120 N   0  0  0  0  0  0  0  0  0  0  0  0
   -2.2510   11.9740   17.5010 N   0  0  0  0  0  0  0  0  0  0  0  0
   -1.1330   12.4080   18.1500 C   0  0  0  0  0  0  0  0  0  0  0  0
   -1.8490    9.4470   19.2950 H   0  0  0  0  0  0  0  0  0  0  0  0
   -2.7770   12.4460   16.7730 H   0  0  0  0  0  0  0  0  0  0  0  0
   -0.6840   13.3640   17.9190 H   0  0  0  0  0  0  0  0  0  0  0  0
  1 22  1  0  0  0  0
  1  3  1  0  0  0  0
  2  1  2  0  0  0  0
  3  4  1  0  0  0  0
  4 10  1  0  0  0  0
  4  9  1  0  0  0  0
  4  5  1  0  0  0  0
  5 12  1  0  0  0  0
  6  5  1  0  0  0  0
  6 14  1  0  0  0  0
  7 16  1  0  0  0  0
  7  6  1  0  0  0  0
  8 17  1  6  0  0  0
  8  3  1  0  0  0  0
  8  7  1  0  0  0  0
 11  5  1  0  0  0  0
 13  6  1  0  0  0  0
 15  7  1  0  0  0  0
 18 19  1  0  0  0  0
 19 24  1  0  0  0  0
 19 20  2  0  0  0  0
 20 25  1  0  0  0  0
 21 20  1  0  0  0  0
 21 26  1  0  0  0  0
 22 21  2  0  0  0  0
 23 18  2  0  0  0  0
 23 22  1  0  0  0  0
 27 23  1  0  0  0  0
 28 29  1  0  0  0  0
 28 18  1  0  0  0  0
 29 31  1  0  0  0  0
 29 30  1  0  0  0  0
 32 36  1  0  0  0  0
 32 33  2  0  0  0  0
 33 34  1  0  0  0  0
 34 29  1  0  0  0  0
 35 34  2  0  0  0  0
 36 35  1  0  0  0  0
 37 40  1  0  0  0  0
 37 32  1  0  0  0  0
 38 37  1  0  0  0  0
 39 37  1  0  0  0  0
 41  8  1  0  0  0  0
 42 41  1  0  0  0  0
 42 46  1  0  0  0  0
 43 42  2  0  0  0  0
 44 43  1  0  0  0  0
 44 45  1  0  0  0  0
 45 41  2  0  0  0  0
 47 44  1  0  0  0  0
 48 45  1  0  0  0  0
M  END
>  <MODEL>
9

>  <REMARK>
 VINA RESULT:    -8.079      2.369      8.412
 INTER + INTRA:         -10.057
 INTER:                 -10.320
 INTRA:                   0.263
 UNBOUND:                 0.621
  Name = 
  6 active torsions:
  status: ('A' for Active; 'I' for Inactive)
    1  A    between atoms: C_1  and  C_2
    2  A    between atoms: C_4  and  C_5
    3  A    between atoms: C_5  and  O_6
    4  A    between atoms: O_6  and  C_7
    5  A    between atoms: C_11  and  C_12
    6  A    between atoms: C_19  and  C_20
                            x       y       z     vdW  Elec       q    Type
                         _______ _______ _______ _____ _____    ______ ____

>  <TORSDO>
F 6

$$$$
=
 OpenBabel07192307433D

 48 51  0  0  1  0  0  0  0  0999 V2000
    0.1900   10.2780   19.9140 C   0  0  0  0  0  0  0  0  0  0  0  0
    0.4410   10.7130   21.0360 O   0  0  0  0  0  0  0  0  0  0  0  0
   -0.9050   10.6880   19.1420 N   0  0  0  0  0  0  0  0  0  0  0  0
   -1.5410    9.8060   18.1590 C   0  0  0  0  0  0  0  0  0  0  0  0
   -2.2780   10.5920   17.0830 C   0  0  0  0  0  0  0  0  0  0  0  0
   -3.2870   11.5880   17.6540 C   0  0  0  0  0  0  0  0  0  0  0  0
   -3.1700   11.7640   19.1670 C   0  0  0  0  0  0  0  0  0  0  0  0
   -1.7200   11.7860   19.6780 C   0  0  2  0  0  0  0  0  0  0  0  0
   -2.2370    9.1590   18.7080 H   0  0  0  0  0  0  0  0  0  0  0  0
   -0.8150    9.1410   17.6860 H   0  0  0  0  0  0  0  0  0  0  0  0
   -1.5470   11.1330   16.4700 H   0  0  0  0  0  0  0  0  0  0  0  0
   -2.7890    9.8990   16.4030 H   0  0  0  0  0  0  0  0  0  0  0  0
   -3.1610   12.5550   17.1520 H   0  0  0  0  0  0  0  0  0  0  0  0
   -4.3050   11.2580   17.4150 H   0  0  0  0  0  0  0  0  0  0  0  0
   -3.7100   12.6680   19.4760 H   0  0  0  0  0  0  0  0  0  0  0  0
   -3.6880   10.9210   19.6450 H   0  0  0  0  0  0  0  0  0  0  0  0
   -1.7720   11.6620   20.7680 H   0  0  0  0  0  0  0  0  0  0  0  0
    2.3190    7.1860   19.6000 C   0  0  0  0  0  0  0  0  0  0  0  0
    2.8880    7.3810   18.3390 C   0  0  0  0  0  0  0  0  0  0  0  0
    2.5830    8.5270   17.5920 C   0  0  0  0  0  0  0  0  0  0  0  0
    1.6980    9.4770   18.0980 C   0  0  0  0  0  0  0  0  0  0  0  0
    1.1130    9.2710   19.3510 C   0  0  0  0  0  0  0  0  0  0  0  0
    1.4390    8.1440   20.1090 C   0  0  0  0  0  0  0  0  0  0  0  0
    3.5990    6.6800   17.9130 H   0  0  0  0  0  0  0  0  0  0  0  0
    3.0510    8.6820   16.6240 H   0  0  0  0  0  0  0  0  0  0  0  0
    1.4790   10.3780   17.5310 H   0  0  0  0  0  0  0  0  0  0  0  0
    1.0110    8.0160   21.1010 H   0  0  0  0  0  0  0  0  0  0  0  0
    2.5480    6.1290   20.4350 O   0  0  0  0  0  0  0  0  0  0  0  0
    1.5190    5.1390   20.5880 C   0  0  0  0  0  0  0  0  0  0  0  0
    0.5410    5.5450   20.3000 H   0  0  0  0  0  0  0  0  0  0  0  0
    1.4530    4.9450   21.6650 H   0  0  0  0  0  0  0  0  0  0  0  0
    2.7590    2.3000   18.8680 C   0  0  0  0  0  0  0  0  0  0  0  0
    2.9920    3.5080   19.3270 N   0  0  0  0  0  0  0  0  0  0  0  0
    1.7920    3.8330   19.9160 C   0  0  0  0  0  0  0  0  0  0  0  0
    0.8520    2.8780   19.8280 N   0  0  0  0  0  0  0  0  0  0  0  0
    1.4980    1.8540   19.1320 O   0  0  0  0  0  0  0  0  0  0  0  0
    3.6480    1.3840   18.1330 C   0  0  0  0  0  0  0  0  0  0  0  0
    4.6660    1.4270   18.5350 H   0  0  0  0  0  0  0  0  0  0  0  0
    3.2900    0.3540   18.2190 H   0  0  0  0  0  0  0  0  0  0  0  0
    3.6880    1.6520   17.0730 H   0  0  0  0  0  0  0  0  0  0  0  0
   -1.0300   13.0940   19.4020 C   0  0  0  0  0  0  0  0  0  0  0  0
   -1.0520   14.2960   20.1480 C   0  0  0  0  0  0  0  0  0  0  0  0
   -0.3160   15.2670   19.5980 N   0  0  0  0  0  0  0  0  0  0  0  0
    0.1550   14.7040   18.4750 N   0  0  0  0  0  0  0  0  0  0  0  0
   -0.2250   13.4030   18.3230 C   0  0  0  0  0  0  0  0  0  0  0  0
   -1.5740   14.5080   21.0710 H   0  0  0  0  0  0  0  0  0  0  0  0
    0.7300   15.2670   17.8570 H   0  0  0  0  0  0  0  0  0  0  0  0
    0.0800   12.8260   17.4610 H   0  0  0  0  0  0  0  0  0  0  0  0
  1  2  2  0  0  0  0
  3  8  1  0  0  0  0
  3  1  1  0  0  0  0
  4  9  1  0  0  0  0
  4  3  1  0  0  0  0
  5  6  1  0  0  0  0
  5  4  1  0  0  0  0
  6  7  1  0  0  0  0
  7 15  1  0  0  0  0
  7 16  1  0  0  0  0
  7  8  1  0  0  0  0
  8 17  1  1  0  0  0
 10  4  1  0  0  0  0
 11  5  1  0  0  0  0
 12  5  1  0  0  0  0
 13  6  1  0  0  0  0
 14  6  1  0  0  0  0
 18 23  1  0  0  0  0
 18 28  1  0  0  0  0
 19 18  2  0  0  0  0
 20 21  2  0  0  0  0
 20 19  1  0  0  0  0
 21 22  1  0  0  0  0
 22  1  1  0  0  0  0
 22 23  2  0  0  0  0
 23 27  1  0  0  0  0
 24 19  1  0  0  0  0
 25 20  1  0  0  0  0
 26 21  1  0  0  0  0
 28 29  1  0  0  0  0
 29 31  1  0  0  0  0
 30 29  1  0  0  0  0
 32 36  1  0  0  0  0
 32 33  2  0  0  0  0
 33 34  1  0  0  0  0
 34 29  1  0  0  0  0
 35 34  2  0  0  0  0
 36 35  1  0  0  0  0
 37 39  1  0  0  0  0
 37 38  1  0  0  0  0
 37 32  1  0  0  0  0
 40 37  1  0  0  0  0
 41  8  1  0  0  0  0
 41 42  1  0  0  0  0
 42 46  1  0  0  0  0
 43 42  2  0  0  0  0
 44 43  1  0  0  0  0
 45 44  1  0  0  0  0
 45 41  2  0  0  0  0
 47 44  1  0  0  0  0
 48 45  1  0  0  0  0
M  END
>  <MODEL>
10

>  <REMARK>
 VINA RESULT:    -8.023      2.751      8.519
 INTER + INTRA:          -9.981
 INTER:                  -9.340
 INTRA:                  -0.642
 UNBOUND:                 0.621
  Name = 
  6 active torsions:
  status: ('A' for Active; 'I' for Inactive)
    1  A    between atoms: C_1  and  C_2
    2  A    between atoms: C_4  and  C_5
    3  A    between atoms: C_5  and  O_6
    4  A    between atoms: O_6  and  C_7
    5  A    between atoms: C_11  and  C_12
    6  A    between atoms: C_19  and  C_20
                            x       y       z     vdW  Elec       q    Type
                         _______ _______ _______ _____ _____    ______ ____

>  <TORSDO>
F 6

$$$$
=
 OpenBabel07192307433D

 48 51  0  0  1  0  0  0  0  0999 V2000
    3.1570    6.2110   19.5380 C   0  0  0  0  0  0  0  0  0  0  0  0
    2.9470    5.6190   20.5950 O   0  0  0  0  0  0  0  0  0  0  0  0
    4.1030    5.8060   18.5880 N   0  0  0  0  0  0  0  0  0  0  0  0
    4.7700    6.7580   17.6960 C   0  0  0  0  0  0  0  0  0  0  0  0
    5.2800    6.0880   16.4270 C   0  0  0  0  0  0  0  0  0  0  0  0
    6.1770    4.8830   16.7060 C   0  0  0  0  0  0  0  0  0  0  0  0
    6.1740    4.4560   18.1730 C   0  0  0  0  0  0  0  0  0  0  0  0
    4.7910    4.5330   18.8380 C   0  0  2  0  0  0  0  0  0  0  0  0
    5.6020    7.2000   18.2580 H   0  0  0  0  0  0  0  0  0  0  0  0
    4.1100    7.5870   17.4260 H   0  0  0  0  0  0  0  0  0  0  0  0
    4.4230    5.7650   15.8220 H   0  0  0  0  0  0  0  0  0  0  0  0
    5.8230    6.8180   15.8150 H   0  0  0  0  0  0  0  0  0  0  0  0
    5.8640    4.0460   16.0700 H   0  0  0  0  0  0  0  0  0  0  0  0
    7.2070    5.1140   16.4080 H   0  0  0  0  0  0  0  0  0  0  0  0
    6.6000    3.4490   18.2650 H   0  0  0  0  0  0  0  0  0  0  0  0
    6.8540    5.1250   18.7190 H   0  0  0  0  0  0  0  0  0  0  0  0
    4.9610    4.4520   19.9210 H   0  0  0  0  0  0  0  0  0  0  0  0
    0.9190    9.1950   20.0700 C   0  0  0  0  0  0  0  0  0  0  0  0
    0.7700    9.6530   18.7580 C   0  0  0  0  0  0  0  0  0  0  0  0
    1.3950    8.9850   17.6980 C   0  0  0  0  0  0  0  0  0  0  0  0
    2.1810    7.8600   17.9440 C   0  0  0  0  0  0  0  0  0  0  0  0
    2.3450    7.4150   19.2590 C   0  0  0  0  0  0  0  0  0  0  0  0
    1.6990    8.0620   20.3140 C   0  0  0  0  0  0  0  0  0  0  0  0
    0.1510   10.5110   18.5150 H   0  0  0  0  0  0  0  0  0  0  0  0
    1.2520    9.3340   16.6790 H   0  0  0  0  0  0  0  0  0  0  0  0
    2.6460    7.3270   17.1200 H   0  0  0  0  0  0  0  0  0  0  0  0
    1.8000    7.6790   21.3270 H   0  0  0  0  0  0  0  0  0  0  0  0
    0.3490    9.7390   21.1860 O   0  0  0  0  0  0  0  0  0  0  0  0
   -0.5840   10.8190   21.0240 C   0  0  0  0  0  0  0  0  0  0  0  0
   -1.5310   10.5970   21.5330 H   0  0  0  0  0  0  0  0  0  0  0  0
   -0.8230   10.8450   19.9540 H   0  0  0  0  0  0  0  0  0  0  0  0
    1.1300   13.8880   21.4750 C   0  0  0  0  0  0  0  0  0  0  0  0
    1.0550   12.7410   20.8380 N   0  0  0  0  0  0  0  0  0  0  0  0
   -0.0620   12.1680   21.3980 C   0  0  0  0  0  0  0  0  0  0  0  0
   -0.6580   12.9140   22.3420 N   0  0  0  0  0  0  0  0  0  0  0  0
    0.1350   14.0630   22.3910 O   0  0  0  0  0  0  0  0  0  0  0  0
    2.1060   14.9810   21.3360 C   0  0  0  0  0  0  0  0  0  0  0  0
    2.1310   15.5940   22.2430 H   0  0  0  0  0  0  0  0  0  0  0  0
    3.1100   14.5770   21.1690 H   0  0  0  0  0  0  0  0  0  0  0  0
    1.8460   15.6270   20.4930 H   0  0  0  0  0  0  0  0  0  0  0  0
    3.8920    3.3960   18.4330 C   0  0  0  0  0  0  0  0  0  0  0  0
    2.9320    3.3360   17.3960 C   0  0  0  0  0  0  0  0  0  0  0  0
    2.3110    2.1550   17.3250 N   0  0  0  0  0  0  0  0  0  0  0  0
    2.8450    1.4600   18.3410 N   0  0  0  0  0  0  0  0  0  0  0  0
    3.8070    2.1480   19.0190 C   0  0  0  0  0  0  0  0  0  0  0  0
    2.6560    4.1040   16.6870 H   0  0  0  0  0  0  0  0  0  0  0  0
    2.5050    0.5200   18.5150 H   0  0  0  0  0  0  0  0  0  0  0  0
    4.3210    1.7110   19.8640 H   0  0  0  0  0  0  0  0  0  0  0  0
  1  2  2  0  0  0  0
  3  8  1  0  0  0  0
  3  1  1  0  0  0  0
  4  9  1  0  0  0  0
  4  3  1  0  0  0  0
  5  6  1  0  0  0  0
  5  4  1  0  0  0  0
  6  7  1  0  0  0  0
  7 15  1  0  0  0  0
  7 16  1  0  0  0  0
  7  8  1  0  0  0  0
  8 17  1  1  0  0  0
 10  4  1  0  0  0  0
 11  5  1  0  0  0  0
 12  5  1  0  0  0  0
 13  6  1  0  0  0  0
 14  6  1  0  0  0  0
 18 23  1  0  0  0  0
 18 28  1  0  0  0  0
 19 18  2  0  0  0  0
 20 21  2  0  0  0  0
 20 19  1  0  0  0  0
 21 22  1  0  0  0  0
 22  1  1  0  0  0  0
 22 23  2  0  0  0  0
 23 27  1  0  0  0  0
 24 19  1  0  0  0  0
 25 20  1  0  0  0  0
 26 21  1  0  0  0  0
 29 28  1  0  0  0  0
 29 34  1  0  0  0  0
 29 30  1  0  0  0  0
 31 29  1  0  0  0  0
 32 36  1  0  0  0  0
 33 34  1  0  0  0  0
 33 32  2  0  0  0  0
 34 35  2  0  0  0  0
 35 36  1  0  0  0  0
 37 32  1  0  0  0  0
 37 38  1  0  0  0  0
 39 37  1  0  0  0  0
 40 37  1  0  0  0  0
 41  8  1  0  0  0  0
 41 45  2  0  0  0  0
 42 41  1  0  0  0  0
 43 42  2  0  0  0  0
 43 44  1  0  0  0  0
 44 47  1  0  0  0  0
 44 45  1  0  0  0  0
 45 48  1  0  0  0  0
 46 42  1  0  0  0  0
M  END
>  <MODEL>
11

>  <REMARK>
 VINA RESULT:    -7.840      3.002      4.406
 INTER + INTRA:          -9.740
 INTER:                  -9.590
 INTRA:                  -0.150
 UNBOUND:                 0.621
  Name = 
  6 active torsions:
  status: ('A' for Active; 'I' for Inactive)
    1  A    between atoms: C_1  and  C_2
    2  A    between atoms: C_4  and  C_5
    3  A    between atoms: C_5  and  O_6
    4  A    between atoms: O_6  and  C_7
    5  A    between atoms: C_11  and  C_12
    6  A    between atoms: C_19  and  C_20
                            x       y       z     vdW  Elec       q    Type
                         _______ _______ _______ _____ _____    ______ ____

>  <TORSDO>
F 6

$$$$
=
 OpenBabel07192307433D

 48 51  0  0  1  0  0  0  0  0999 V2000
    3.2640    3.7800   17.3660 C   0  0  0  0  0  0  0  0  0  0  0  0
    2.6400    2.7500   17.1110 O   0  0  0  0  0  0  0  0  0  0  0  0
    2.8510    4.7330   18.3060 N   0  0  0  0  0  0  0  0  0  0  0  0
    3.2020    6.1500   18.1860 C   0  0  0  0  0  0  0  0  0  0  0  0
    3.1620    6.8630   19.5310 C   0  0  0  0  0  0  0  0  0  0  0  0
    1.8300    6.6920   20.2590 C   0  0  0  0  0  0  0  0  0  0  0  0
    0.9170    5.6520   19.6120 C   0  0  0  0  0  0  0  0  0  0  0  0
    1.6610    4.4060   19.1030 C   0  0  2  0  0  0  0  0  0  0  0  0
    2.4850    6.6030   17.4890 H   0  0  0  0  0  0  0  0  0  0  0  0
    4.1890    6.2840   17.7360 H   0  0  0  0  0  0  0  0  0  0  0  0
    3.9700    6.4770   20.1650 H   0  0  0  0  0  0  0  0  0  0  0  0
    3.3720    7.9300   19.3910 H   0  0  0  0  0  0  0  0  0  0  0  0
    2.0230    6.4230   21.3050 H   0  0  0  0  0  0  0  0  0  0  0  0
    1.3020    7.6530   20.2910 H   0  0  0  0  0  0  0  0  0  0  0  0
    0.1180    5.3750   20.3110 H   0  0  0  0  0  0  0  0  0  0  0  0
    0.4210    6.1280   18.7550 H   0  0  0  0  0  0  0  0  0  0  0  0
    0.9590    3.8690   18.4500 H   0  0  0  0  0  0  0  0  0  0  0  0
    6.9070    4.4660   16.6990 C   0  0  0  0  0  0  0  0  0  0  0  0
    6.9230    4.4860   15.3020 C   0  0  0  0  0  0  0  0  0  0  0  0
    5.7420    4.2830   14.5760 C   0  0  0  0  0  0  0  0  0  0  0  0
    4.5410    4.0460   15.2430 C   0  0  0  0  0  0  0  0  0  0  0  0
    4.5310    4.0060   16.6400 C   0  0  0  0  0  0  0  0  0  0  0  0
    5.7010    4.2390   17.3660 C   0  0  0  0  0  0  0  0  0  0  0  0
    7.8280    4.6870   14.7390 H   0  0  0  0  0  0  0  0  0  0  0  0
    5.7600    4.3260   13.4900 H   0  0  0  0  0  0  0  0  0  0  0  0
    3.6210    3.9130   14.6820 H   0  0  0  0  0  0  0  0  0  0  0  0
    5.6710    4.2480   18.4530 H   0  0  0  0  0  0  0  0  0  0  0  0
    7.9790    4.6700   17.5220 O   0  0  0  0  0  0  0  0  0  0  0  0
    7.8260    5.5570   18.6410 C   0  0  0  0  0  0  0  0  0  0  0  0
    8.5320    5.3000   19.4410 H   0  0  0  0  0  0  0  0  0  0  0  0
    6.8300    5.3500   19.0490 H   0  0  0  0  0  0  0  0  0  0  0  0
    8.4210    9.0340   18.3110 C   0  0  0  0  0  0  0  0  0  0  0  0
    8.7440    7.9040   18.8960 N   0  0  0  0  0  0  0  0  0  0  0  0
    7.8790    7.0120   18.3070 C   0  0  0  0  0  0  0  0  0  0  0  0
    7.0520    7.5550   17.3990 N   0  0  0  0  0  0  0  0  0  0  0  0
    7.4150    8.9030   17.3990 O   0  0  0  0  0  0  0  0  0  0  0  0
    8.9820   10.3830   18.4930 C   0  0  0  0  0  0  0  0  0  0  0  0
    8.9910   10.6590   19.5520 H   0  0  0  0  0  0  0  0  0  0  0  0
   10.0100   10.4230   18.1200 H   0  0  0  0  0  0  0  0  0  0  0  0
    8.3870   11.1250   17.9520 H   0  0  0  0  0  0  0  0  0  0  0  0
    2.0510    3.4720   20.2160 C   0  0  0  0  0  0  0  0  0  0  0  0
    3.3080    2.8880   20.4990 C   0  0  0  0  0  0  0  0  0  0  0  0
    3.2880    2.1010   21.5790 N   0  0  0  0  0  0  0  0  0  0  0  0
    2.0080    2.1470   21.9750 N   0  0  0  0  0  0  0  0  0  0  0  0
    1.2340    2.9670   21.2090 C   0  0  0  0  0  0  0  0  0  0  0  0
    4.2400    3.0020   19.9640 H   0  0  0  0  0  0  0  0  0  0  0  0
    1.7300    1.5930   22.7790 H   0  0  0  0  0  0  0  0  0  0  0  0
    0.1800    3.0980   21.4120 H   0  0  0  0  0  0  0  0  0  0  0  0
  1  3  1  0  0  0  0
  2  1  2  0  0  0  0
  3  8  1  0  0  0  0
  4  3  1  0  0  0  0
  4  5  1  0  0  0  0
  5 11  1  0  0  0  0
  5  6  1  0  0  0  0
  6 14  1  0  0  0  0
  6 13  1  0  0  0  0
  7  6  1  0  0  0  0
  7 15  1  0  0  0  0
  8 17  1  6  0  0  0
  8  7  1  0  0  0  0
  8 41  1  0  0  0  0
  9  4  1  0  0  0  0
 10  4  1  0  0  0  0
 12  5  1  0  0  0  0
 16  7  1  0  0  0  0
 18 23  1  0  0  0  0
 18 28  1  0  0  0  0
 19 18  2  0  0  0  0
 20 21  2  0  0  0  0
 20 19  1  0  0  0  0
 21 22  1  0  0  0  0
 22  1  1  0  0  0  0
 22 23  2  0  0  0  0
 23 27  1  0  0  0  0
 24 19  1  0  0  0  0
 25 20  1  0  0  0  0
 26 21  1  0  0  0  0
 28 29  1  0  0  0  0
 29 31  1  0  0  0  0
 29 30  1  0  0  0  0
 32 37  1  0  0  0  0
 32 33  2  0  0  0  0
 34 29  1  0  0  0  0
 34 33  1  0  0  0  0
 35 34  2  0  0  0  0
 36 35  1  0  0  0  0
 36 32  1  0  0  0  0
 37 38  1  0  0  0  0
 39 37  1  0  0  0  0
 40 37  1  0  0  0  0
 41 42  1  0  0  0  0
 41 45  2  0  0  0  0
 42 43  2  0  0  0  0
 43 44  1  0  0  0  0
 44 47  1  0  0  0  0
 45 48  1  0  0  0  0
 45 44  1  0  0  0  0
 46 42  1  0  0  0  0
M  END
>  <MODEL>
12

>  <REMARK>
 VINA RESULT:    -7.676      4.648      7.751
 INTER + INTRA:          -9.524
 INTER:                  -9.074
 INTRA:                  -0.449
 UNBOUND:                 0.621
  Name = 
  6 active torsions:
  status: ('A' for Active; 'I' for Inactive)
    1  A    between atoms: C_1  and  C_2
    2  A    between atoms: C_4  and  C_5
    3  A    between atoms: C_5  and  O_6
    4  A    between atoms: O_6  and  C_7
    5  A    between atoms: C_11  and  C_12
    6  A    between atoms: C_19  and  C_20
                            x       y       z     vdW  Elec       q    Type
                         _______ _______ _______ _____ _____    ______ ____

>  <TORSDO>
F 6

$$$$
=
 OpenBabel07192307433D

 48 51  0  0  1  0  0  0  0  0999 V2000
    2.4260    6.5620   19.8930 C   0  0  0  0  0  0  0  0  0  0  0  0
    1.9970    6.1810   20.9810 O   0  0  0  0  0  0  0  0  0  0  0  0
    3.2960    5.8140   19.0900 N   0  0  0  0  0  0  0  0  0  0  0  0
    4.2490    6.4460   18.1730 C   0  0  0  0  0  0  0  0  0  0  0  0
    4.6520    5.5130   17.0390 C   0  0  0  0  0  0  0  0  0  0  0  0
    5.1820    4.1670   17.5320 C   0  0  0  0  0  0  0  0  0  0  0  0
    4.9670    3.9450   19.0280 C   0  0  0  0  0  0  0  0  0  0  0  0
    3.6090    4.4520   19.5410 C   0  0  2  0  0  0  0  0  0  0  0  0
    5.1260    6.7330   18.7660 H   0  0  0  0  0  0  0  0  0  0  0  0
    3.8490    7.3720   17.7530 H   0  0  0  0  0  0  0  0  0  0  0  0
    3.7850    5.3420   16.3900 H   0  0  0  0  0  0  0  0  0  0  0  0
    5.4080    5.9990   16.4110 H   0  0  0  0  0  0  0  0  0  0  0  0
    4.7060    3.3620   16.9600 H   0  0  0  0  0  0  0  0  0  0  0  0
    6.2550    4.0920   17.3150 H   0  0  0  0  0  0  0  0  0  0  0  0
    5.1070    2.8840   19.2680 H   0  0  0  0  0  0  0  0  0  0  0  0
    5.7590    4.4860   19.5650 H   0  0  0  0  0  0  0  0  0  0  0  0
    3.6770    4.4690   20.6370 H   0  0  0  0  0  0  0  0  0  0  0  0
    0.6770    9.8960   19.7610 C   0  0  0  0  0  0  0  0  0  0  0  0
    1.0780   10.3570   18.5040 C   0  0  0  0  0  0  0  0  0  0  0  0
    1.9140    9.5760   17.6950 C   0  0  0  0  0  0  0  0  0  0  0  0
    2.3630    8.3350   18.1440 C   0  0  0  0  0  0  0  0  0  0  0  0
    1.9780    7.8840   19.4090 C   0  0  0  0  0  0  0  0  0  0  0  0
    1.1210    8.6470   20.2040 C   0  0  0  0  0  0  0  0  0  0  0  0
    0.7370   11.3060   18.1030 H   0  0  0  0  0  0  0  0  0  0  0  0
    2.1990    9.9320   16.7090 H   0  0  0  0  0  0  0  0  0  0  0  0
    2.9920    7.7190   17.5070 H   0  0  0  0  0  0  0  0  0  0  0  0
    0.7930    8.2660   21.1690 H   0  0  0  0  0  0  0  0  0  0  0  0
   -0.1480   10.5460   20.6340 O   0  0  0  0  0  0  0  0  0  0  0  0
   -0.6280   11.8530   20.2830 C   0  0  0  0  0  0  0  0  0  0  0  0
    0.0980   12.3770   19.6480 H   0  0  0  0  0  0  0  0  0  0  0  0
   -0.6610   12.4180   21.2230 H   0  0  0  0  0  0  0  0  0  0  0  0
   -3.6120   11.5870   18.3910 C   0  0  0  0  0  0  0  0  0  0  0  0
   -2.3390   11.2830   18.5050 N   0  0  0  0  0  0  0  0  0  0  0  0
   -1.9990   11.8870   19.6930 C   0  0  0  0  0  0  0  0  0  0  0  0
   -3.0070   12.5400   20.2940 N   0  0  0  0  0  0  0  0  0  0  0  0
   -4.0830   12.3380   19.4280 O   0  0  0  0  0  0  0  0  0  0  0  0
   -4.5740   11.2360   17.3330 C   0  0  0  0  0  0  0  0  0  0  0  0
   -5.5990   11.2680   17.7160 H   0  0  0  0  0  0  0  0  0  0  0  0
   -4.4980   11.9410   16.4990 H   0  0  0  0  0  0  0  0  0  0  0  0
   -4.3800   10.2280   16.9550 H   0  0  0  0  0  0  0  0  0  0  0  0
    2.4750    3.5350   19.1710 C   0  0  0  0  0  0  0  0  0  0  0  0
    2.0450    2.3400   19.7950 C   0  0  0  0  0  0  0  0  0  0  0  0
    0.9940    1.7820   19.1880 N   0  0  0  0  0  0  0  0  0  0  0  0
    0.7640    2.5970   18.1480 N   0  0  0  0  0  0  0  0  0  0  0  0
    1.6050    3.6690   18.1050 C   0  0  0  0  0  0  0  0  0  0  0  0
    2.4550    1.8510   20.6670 H   0  0  0  0  0  0  0  0  0  0  0  0
    0.0140    2.3610   17.5060 H   0  0  0  0  0  0  0  0  0  0  0  0
    1.5360    4.4070   17.3190 H   0  0  0  0  0  0  0  0  0  0  0  0
  1  2  2  0  0  0  0
  3  8  1  0  0  0  0
  3  1  1  0  0  0  0
  4  9  1  0  0  0  0
  4  3  1  0  0  0  0
  5  6  1  0  0  0  0
  5  4  1  0  0  0  0
  6  7  1  0  0  0  0
  7 15  1  0  0  0  0
  7  8  1  0  0  0  0
  7 16  1  0  0  0  0
  8 17  1  1  0  0  0
 10  4  1  0  0  0  0
 11  5  1  0  0  0  0
 12  5  1  0  0  0  0
 13  6  1  0  0  0  0
 14  6  1  0  0  0  0
 18 23  1  0  0  0  0
 18 28  1  0  0  0  0
 19 18  2  0  0  0  0
 20 21  2  0  0  0  0
 20 19  1  0  0  0  0
 21 22  1  0  0  0  0
 22  1  1  0  0  0  0
 22 23  2  0  0  0  0
 23 27  1  0  0  0  0
 24 19  1  0  0  0  0
 25 20  1  0  0  0  0
 26 21  1  0  0  0  0
 29 28  1  0  0  0  0
 29 31  1  0  0  0  0
 30 29  1  0  0  0  0
 32 33  2  0  0  0  0
 32 36  1  0  0  0  0
 33 34  1  0  0  0  0
 34 29  1  0  0  0  0
 34 35  2  0  0  0  0
 36 35  1  0  0  0  0
 37 38  1  0  0  0  0
 37 32  1  0  0  0  0
 39 37  1  0  0  0  0
 40 37  1  0  0  0  0
 41  8  1  0  0  0  0
 41 42  1  0  0  0  0
 42 46  1  0  0  0  0
 43 42  2  0  0  0  0
 44 43  1  0  0  0  0
 45 44  1  0  0  0  0
 45 41  2  0  0  0  0
 47 44  1  0  0  0  0
 48 45  1  0  0  0  0
M  END
>  <MODEL>
13

>  <REMARK>
 VINA RESULT:    -7.662      2.059      3.397
 INTER + INTRA:          -9.505
 INTER:                  -9.731
 INTRA:                   0.226
 UNBOUND:                 0.621
  Name = 
  6 active torsions:
  status: ('A' for Active; 'I' for Inactive)
    1  A    between atoms: C_1  and  C_2
    2  A    between atoms: C_4  and  C_5
    3  A    between atoms: C_5  and  O_6
    4  A    between atoms: O_6  and  C_7
    5  A    between atoms: C_11  and  C_12
    6  A    between atoms: C_19  and  C_20
                            x       y       z     vdW  Elec       q    Type
                         _______ _______ _______ _____ _____    ______ ____

>  <TORSDO>
F 6

$$$$
=
 OpenBabel07192307433D

 48 51  0  0  1  0  0  0  0  0999 V2000
   -0.2480   10.5930   19.0530 C   0  0  0  0  0  0  0  0  0  0  0  0
   -1.2870   10.3600   18.4370 O   0  0  0  0  0  0  0  0  0  0  0  0
    0.1000   11.8550   19.5530 N   0  0  0  0  0  0  0  0  0  0  0  0
    1.4950   12.2720   19.7160 C   0  0  0  0  0  0  0  0  0  0  0  0
    1.6420   13.3710   20.7590 C   0  0  0  0  0  0  0  0  0  0  0  0
    0.7420   14.5760   20.4890 C   0  0  0  0  0  0  0  0  0  0  0  0
   -0.2850   14.3270   19.3860 C   0  0  0  0  0  0  0  0  0  0  0  0
   -0.9030   12.9190   19.4210 C   0  0  2  0  0  0  0  0  0  0  0  0
    1.8450   12.6210   18.7360 H   0  0  0  0  0  0  0  0  0  0  0  0
    2.1380   11.4300   19.9860 H   0  0  0  0  0  0  0  0  0  0  0  0
    1.4060   12.9610   21.7490 H   0  0  0  0  0  0  0  0  0  0  0  0
    2.6880   13.6970   20.8090 H   0  0  0  0  0  0  0  0  0  0  0  0
    0.2340   14.8610   21.4180 H   0  0  0  0  0  0  0  0  0  0  0  0
    1.3570   15.4400   20.2090 H   0  0  0  0  0  0  0  0  0  0  0  0
   -1.0630   15.1000   19.4240 H   0  0  0  0  0  0  0  0  0  0  0  0
    0.2230   14.4530   18.4190 H   0  0  0  0  0  0  0  0  0  0  0  0
   -1.4150   12.7800   18.4590 H   0  0  0  0  0  0  0  0  0  0  0  0
    2.3420    7.9300   18.4290 C   0  0  0  0  0  0  0  0  0  0  0  0
    2.3850    7.3030   19.6780 C   0  0  0  0  0  0  0  0  0  0  0  0
    1.5640    7.7450   20.7220 C   0  0  0  0  0  0  0  0  0  0  0  0
    0.7020    8.8230   20.5280 C   0  0  0  0  0  0  0  0  0  0  0  0
    0.6750    9.4620   19.2860 C   0  0  0  0  0  0  0  0  0  0  0  0
    1.4710    9.0040   18.2340 C   0  0  0  0  0  0  0  0  0  0  0  0
    3.0240    6.4460   19.8700 H   0  0  0  0  0  0  0  0  0  0  0  0
    1.5860    7.2340   21.6810 H   0  0  0  0  0  0  0  0  0  0  0  0
    0.0470    9.1510   21.3300 H   0  0  0  0  0  0  0  0  0  0  0  0
    1.4090    9.4830   17.2590 H   0  0  0  0  0  0  0  0  0  0  0  0
    3.0720    7.5860   17.3270 O   0  0  0  0  0  0  0  0  0  0  0  0
    4.4160    7.1170   17.5110 C   0  0  0  0  0  0  0  0  0  0  0  0
    4.6420    6.9870   18.5780 H   0  0  0  0  0  0  0  0  0  0  0  0
    5.0640    7.9330   17.1700 H   0  0  0  0  0  0  0  0  0  0  0  0
    5.4940    4.6640   15.1930 C   0  0  0  0  0  0  0  0  0  0  0  0
    5.3990    5.9380   15.4960 N   0  0  0  0  0  0  0  0  0  0  0  0
    4.7770    5.9010   16.7220 C   0  0  0  0  0  0  0  0  0  0  0  0
    4.4920    4.6660   17.1650 N   0  0  0  0  0  0  0  0  0  0  0  0
    4.9730    3.8400   16.1470 O   0  0  0  0  0  0  0  0  0  0  0  0
    6.0740    4.0190   14.0020 C   0  0  0  0  0  0  0  0  0  0  0  0
    7.1320    4.2780   13.8990 H   0  0  0  0  0  0  0  0  0  0  0  0
    5.9930    2.9310   14.0790 H   0  0  0  0  0  0  0  0  0  0  0  0
    5.5530    4.3430   13.0960 H   0  0  0  0  0  0  0  0  0  0  0  0
   -1.9310   12.7680   20.5090 C   0  0  0  0  0  0  0  0  0  0  0  0
   -1.7710   12.3200   21.8410 C   0  0  0  0  0  0  0  0  0  0  0  0
   -2.9140   12.3140   22.5330 N   0  0  0  0  0  0  0  0  0  0  0  0
   -3.8230   12.7250   21.6370 N   0  0  0  0  0  0  0  0  0  0  0  0
   -3.2850   13.0290   20.4220 C   0  0  0  0  0  0  0  0  0  0  0  0
   -0.8670   11.9960   22.3390 H   0  0  0  0  0  0  0  0  0  0  0  0
   -4.7960   12.7760   21.9230 H   0  0  0  0  0  0  0  0  0  0  0  0
   -3.9030   13.3720   19.6030 H   0  0  0  0  0  0  0  0  0  0  0  0
  1 22  1  0  0  0  0
  1  3  1  0  0  0  0
  2  1  2  0  0  0  0
  3  4  1  0  0  0  0
  4 10  1  0  0  0  0
  4  5  1  0  0  0  0
  5 12  1  0  0  0  0
  5 11  1  0  0  0  0
  6  5  1  0  0  0  0
  6 13  1  0  0  0  0
  7  8  1  0  0  0  0
  7 15  1  0  0  0  0
  7  6  1  0  0  0  0
  8 17  1  6  0  0  0
  8  3  1  0  0  0  0
  8 41  1  0  0  0  0
  9  4  1  0  0  0  0
 14  6  1  0  0  0  0
 16  7  1  0  0  0  0
 18 19  1  0  0  0  0
 19 24  1  0  0  0  0
 19 20  2  0  0  0  0
 20 25  1  0  0  0  0
 21 20  1  0  0  0  0
 21 26  1  0  0  0  0
 22 21  2  0  0  0  0
 23 18  2  0  0  0  0
 23 22  1  0  0  0  0
 27 23  1  0  0  0  0
 28 29  1  0  0  0  0
 28 18  1  0  0  0  0
 29 30  1  0  0  0  0
 31 29  1  0  0  0  0
 32 33  2  0  0  0  0
 32 36  1  0  0  0  0
 33 34  1  0  0  0  0
 34 35  2  0  0  0  0
 34 29  1  0  0  0  0
 36 35  1  0  0  0  0
 37 39  1  0  0  0  0
 37 32  1  0  0  0  0
 38 37  1  0  0  0  0
 40 37  1  0  0  0  0
 41 42  1  0  0  0  0
 42 46  1  0  0  0  0
 42 43  2  0  0  0  0
 44 47  1  0  0  0  0
 44 43  1  0  0  0  0
 45 41  2  0  0  0  0
 45 44  1  0  0  0  0
 48 45  1  0  0  0  0
M  END
>  <MODEL>
14

>  <REMARK>
 VINA RESULT:    -7.660      2.737      8.906
 INTER + INTRA:          -9.502
 INTER:                  -8.724
 INTRA:                  -0.778
 UNBOUND:                 0.621
  Name = 
  6 active torsions:
  status: ('A' for Active; 'I' for Inactive)
    1  A    between atoms: C_1  and  C_2
    2  A    between atoms: C_4  and  C_5
    3  A    between atoms: C_5  and  O_6
    4  A    between atoms: O_6  and  C_7
    5  A    between atoms: C_11  and  C_12
    6  A    between atoms: C_19  and  C_20
                            x       y       z     vdW  Elec       q    Type
                         _______ _______ _______ _____ _____    ______ ____

>  <TORSDO>
F 6

$$$$
=
 OpenBabel07192307433D

 48 51  0  0  1  0  0  0  0  0999 V2000
    0.8140    9.8980   20.4660 C   0  0  0  0  0  0  0  0  0  0  0  0
    1.2150   10.4710   21.4770 O   0  0  0  0  0  0  0  0  0  0  0  0
   -0.1090   10.4490   19.5670 N   0  0  0  0  0  0  0  0  0  0  0  0
   -1.0130    9.6170   18.7690 C   0  0  0  0  0  0  0  0  0  0  0  0
   -1.4830   10.3330   17.5100 C   0  0  0  0  0  0  0  0  0  0  0  0
   -2.1090   11.6970   17.7970 C   0  0  0  0  0  0  0  0  0  0  0  0
   -1.9100   12.1620   19.2390 C   0  0  0  0  0  0  0  0  0  0  0  0
   -0.5190   11.8380   19.8080 C   0  0  2  0  0  0  0  0  0  0  0  0
   -1.8670    9.3620   19.4090 H   0  0  0  0  0  0  0  0  0  0  0  0
   -0.5470    8.6680   18.4910 H   0  0  0  0  0  0  0  0  0  0  0  0
   -0.6310   10.4640   16.8330 H   0  0  0  0  0  0  0  0  0  0  0  0
   -2.2020    9.7040   16.9730 H   0  0  0  0  0  0  0  0  0  0  0  0
   -1.6930   12.4370   17.1030 H   0  0  0  0  0  0  0  0  0  0  0  0
   -3.1850   11.6610   17.5830 H   0  0  0  0  0  0  0  0  0  0  0  0
   -2.1270   13.2350   19.3150 H   0  0  0  0  0  0  0  0  0  0  0  0
   -2.6610   11.6540   19.8620 H   0  0  0  0  0  0  0  0  0  0  0  0
   -0.5850   11.9850   20.8940 H   0  0  0  0  0  0  0  0  0  0  0  0
    2.5570    7.0620   18.7020 C   0  0  0  0  0  0  0  0  0  0  0  0
    2.3450    6.0170   19.6050 C   0  0  0  0  0  0  0  0  0  0  0  0
    1.6270    6.2350   20.7870 C   0  0  0  0  0  0  0  0  0  0  0  0
    1.1260    7.5020   21.0790 C   0  0  0  0  0  0  0  0  0  0  0  0
    1.3560    8.5520   20.1850 C   0  0  0  0  0  0  0  0  0  0  0  0
    2.0460    8.3300   18.9910 C   0  0  0  0  0  0  0  0  0  0  0  0
    2.6970    5.0080   19.4110 H   0  0  0  0  0  0  0  0  0  0  0  0
    1.4450    5.4090   21.4700 H   0  0  0  0  0  0  0  0  0  0  0  0
    0.5470    7.6670   21.9830 H   0  0  0  0  0  0  0  0  0  0  0  0
    2.1810    9.1450   18.2840 H   0  0  0  0  0  0  0  0  0  0  0  0
    3.2190    6.9780   17.5100 O   0  0  0  0  0  0  0  0  0  0  0  0
    4.6350    6.7380   17.5250 C   0  0  0  0  0  0  0  0  0  0  0  0
    5.0020    6.6330   18.5540 H   0  0  0  0  0  0  0  0  0  0  0  0
    5.0950    7.6560   17.1400 H   0  0  0  0  0  0  0  0  0  0  0  0
    5.7220    4.5130   14.9910 C   0  0  0  0  0  0  0  0  0  0  0  0
    5.3820    5.7380   15.3210 N   0  0  0  0  0  0  0  0  0  0  0  0
    5.0950    5.6100   16.6600 C   0  0  0  0  0  0  0  0  0  0  0  0
    5.2430    4.3670   17.1460 N   0  0  0  0  0  0  0  0  0  0  0  0
    5.6640    3.6350   16.0340 O   0  0  0  0  0  0  0  0  0  0  0  0
    6.1490    3.9720   13.6900 C   0  0  0  0  0  0  0  0  0  0  0  0
    6.0420    2.8830   13.6700 H   0  0  0  0  0  0  0  0  0  0  0  0
    5.5380    4.3900   12.8830 H   0  0  0  0  0  0  0  0  0  0  0  0
    7.1970    4.2170   13.4950 H   0  0  0  0  0  0  0  0  0  0  0  0
    0.5460   12.7660   19.2880 C   0  0  0  0  0  0  0  0  0  0  0  0
    1.6800   12.4760   18.4930 C   0  0  0  0  0  0  0  0  0  0  0  0
    2.4160   13.5570   18.2180 N   0  0  0  0  0  0  0  0  0  0  0  0
    1.7770   14.5430   18.8660 N   0  0  0  0  0  0  0  0  0  0  0  0
    0.6450   14.1270   19.5020 C   0  0  0  0  0  0  0  0  0  0  0  0
    2.0020   11.5220   18.1020 H   0  0  0  0  0  0  0  0  0  0  0  0
    2.1710   15.4780   18.8320 H   0  0  0  0  0  0  0  0  0  0  0  0
    0.0320   14.8160   20.0660 H   0  0  0  0  0  0  0  0  0  0  0  0
  1  2  2  0  0  0  0
  3  8  1  0  0  0  0
  3  1  1  0  0  0  0
  4  9  1  0  0  0  0
  4  3  1  0  0  0  0
  5  6  1  0  0  0  0
  5  4  1  0  0  0  0
  6  7  1  0  0  0  0
  7 15  1  0  0  0  0
  7  8  1  0  0  0  0
  7 16  1  0  0  0  0
  8 17  1  1  0  0  0
 10  4  1  0  0  0  0
 11  5  1  0  0  0  0
 12  5  1  0  0  0  0
 13  6  1  0  0  0  0
 14  6  1  0  0  0  0
 18 23  2  0  0  0  0
 18 19  1  0  0  0  0
 19 20  2  0  0  0  0
 20 21  1  0  0  0  0
 20 25  1  0  0  0  0
 21 26  1  0  0  0  0
 22  1  1  0  0  0  0
 22 21  2  0  0  0  0
 23 22  1  0  0  0  0
 24 19  1  0  0  0  0
 27 23  1  0  0  0  0
 28 29  1  0  0  0  0
 28 18  1  0  0  0  0
 29 30  1  0  0  0  0
 31 29  1  0  0  0  0
 32 33  2  0  0  0  0
 32 36  1  0  0  0  0
 33 34  1  0  0  0  0
 34 35  2  0  0  0  0
 34 29  1  0  0  0  0
 36 35  1  0  0  0  0
 37 32  1  0  0  0  0
 38 37  1  0  0  0  0
 39 37  1  0  0  0  0
 40 37  1  0  0  0  0
 41 45  2  0  0  0  0
 41  8  1  0  0  0  0
 42 41  1  0  0  0  0
 43 42  2  0  0  0  0
 43 44  1  0  0  0  0
 44 45  1  0  0  0  0
 45 48  1  0  0  0  0
 46 42  1  0  0  0  0
 47 44  1  0  0  0  0
M  END
>  <MODEL>
15

>  <REMARK>
 VINA RESULT:    -7.657      2.742      8.073
 INTER + INTRA:          -9.499
 INTER:                  -8.882
 INTRA:                  -0.617
 UNBOUND:                 0.621
  Name = 
  6 active torsions:
  status: ('A' for Active; 'I' for Inactive)
    1  A    between atoms: C_1  and  C_2
    2  A    between atoms: C_4  and  C_5
    3  A    between atoms: C_5  and  O_6
    4  A    between atoms: O_6  and  C_7
    5  A    between atoms: C_11  and  C_12
    6  A    between atoms: C_19  and  C_20
                            x       y       z     vdW  Elec       q    Type
                         _______ _______ _______ _____ _____    ______ ____

>  <TORSDO>
F 6

$$$$
=
 OpenBabel07192307433D

 48 51  0  0  1  0  0  0  0  0999 V2000
    1.0980   10.4340   19.3900 C   0  0  0  0  0  0  0  0  0  0  0  0
    1.2820   11.3740   18.6180 O   0  0  0  0  0  0  0  0  0  0  0  0
    0.3470   10.5240   20.5690 N   0  0  0  0  0  0  0  0  0  0  0  0
    0.6150    9.6740   21.7320 C   0  0  0  0  0  0  0  0  0  0  0  0
   -0.6090    9.5280   22.6250 C   0  0  0  0  0  0  0  0  0  0  0  0
   -1.1980   10.8710   23.0560 C   0  0  0  0  0  0  0  0  0  0  0  0
   -0.5970   12.0610   22.3110 C   0  0  0  0  0  0  0  0  0  0  0  0
   -0.3460   11.7950   20.8180 C   0  0  2  0  0  0  0  0  0  0  0  0
    1.4430   10.1360   22.2860 H   0  0  0  0  0  0  0  0  0  0  0  0
    0.9650    8.6830   21.4340 H   0  0  0  0  0  0  0  0  0  0  0  0
   -1.3760    8.9540   22.0910 H   0  0  0  0  0  0  0  0  0  0  0  0
   -0.3520    8.9370   23.5120 H   0  0  0  0  0  0  0  0  0  0  0  0
   -2.2860   10.8480   22.9140 H   0  0  0  0  0  0  0  0  0  0  0  0
   -1.0420   11.0120   24.1330 H   0  0  0  0  0  0  0  0  0  0  0  0
   -1.2320   12.9450   22.4530 H   0  0  0  0  0  0  0  0  0  0  0  0
    0.3670   12.3000   22.7820 H   0  0  0  0  0  0  0  0  0  0  0  0
    0.3030   12.6060   20.4620 H   0  0  0  0  0  0  0  0  0  0  0  0
    2.2700    6.8640   19.6600 C   0  0  0  0  0  0  0  0  0  0  0  0
    2.8710    6.6860   18.4110 C   0  0  0  0  0  0  0  0  0  0  0  0
    2.9000    7.7340   17.4820 C   0  0  0  0  0  0  0  0  0  0  0  0
    2.3190    8.9620   17.7920 C   0  0  0  0  0  0  0  0  0  0  0  0
    1.7000    9.1320   19.0340 C   0  0  0  0  0  0  0  0  0  0  0  0
    1.6960    8.0990   19.9730 C   0  0  0  0  0  0  0  0  0  0  0  0
    3.3550    5.7550   18.1320 H   0  0  0  0  0  0  0  0  0  0  0  0
    3.3930    7.5930   16.5230 H   0  0  0  0  0  0  0  0  0  0  0  0
    2.3630    9.7830   17.0820 H   0  0  0  0  0  0  0  0  0  0  0  0
    1.2500    8.2580   20.9520 H   0  0  0  0  0  0  0  0  0  0  0  0
    2.1920    5.9350   20.6590 O   0  0  0  0  0  0  0  0  0  0  0  0
    1.1740    4.9260   20.5810 C   0  0  0  0  0  0  0  0  0  0  0  0
    0.2340    5.3480   20.2010 H   0  0  0  0  0  0  0  0  0  0  0  0
    0.9680    4.6330   21.6170 H   0  0  0  0  0  0  0  0  0  0  0  0
    2.7130    2.1920   18.9350 C   0  0  0  0  0  0  0  0  0  0  0  0
    2.8630    3.2940   19.6320 N   0  0  0  0  0  0  0  0  0  0  0  0
    1.5620    3.6910   19.8360 C   0  0  0  0  0  0  0  0  0  0  0  0
    0.6410    2.8790   19.2920 N   0  0  0  0  0  0  0  0  0  0  0  0
    1.4080    1.8780   18.6930 O   0  0  0  0  0  0  0  0  0  0  0  0
    3.7290    1.2710   18.3980 C   0  0  0  0  0  0  0  0  0  0  0  0
    4.2660    0.7710   19.2100 H   0  0  0  0  0  0  0  0  0  0  0  0
    3.2580    0.5030   17.7760 H   0  0  0  0  0  0  0  0  0  0  0  0
    4.4580    1.8130   17.7880 H   0  0  0  0  0  0  0  0  0  0  0  0
   -1.6120   11.8360   20.0050 C   0  0  0  0  0  0  0  0  0  0  0  0
   -2.0000   11.0320   18.9070 C   0  0  0  0  0  0  0  0  0  0  0  0
   -3.2050   11.3530   18.4240 N   0  0  0  0  0  0  0  0  0  0  0  0
   -3.5810   12.3890   19.1880 N   0  0  0  0  0  0  0  0  0  0  0  0
   -2.6770   12.7020   20.1590 C   0  0  0  0  0  0  0  0  0  0  0  0
   -1.4560   10.2250   18.4360 H   0  0  0  0  0  0  0  0  0  0  0  0
   -4.4710   12.8360   18.9910 H   0  0  0  0  0  0  0  0  0  0  0  0
   -2.8490   13.5190   20.8460 H   0  0  0  0  0  0  0  0  0  0  0  0
  1  3  1  0  0  0  0
  2  1  2  0  0  0  0
  3  8  1  0  0  0  0
  3  4  1  0  0  0  0
  4  9  1  0  0  0  0
  4  5  1  0  0  0  0
  5  6  1  0  0  0  0
  5 12  1  0  0  0  0
  6 14  1  0  0  0  0
  7 15  1  0  0  0  0
  7 16  1  0  0  0  0
  7  6  1  0  0  0  0
  8 17  1  6  0  0  0
  8  7  1  0  0  0  0
 10  4  1  0  0  0  0
 11  5  1  0  0  0  0
 13  6  1  0  0  0  0
 18 23  1  0  0  0  0
 18 28  1  0  0  0  0
 19 18  2  0  0  0  0
 20 21  2  0  0  0  0
 20 19  1  0  0  0  0
 21 22  1  0  0  0  0
 22  1  1  0  0  0  0
 22 23  2  0  0  0  0
 23 27  1  0  0  0  0
 24 19  1  0  0  0  0
 25 20  1  0  0  0  0
 26 21  1  0  0  0  0
 29 28  1  0  0  0  0
 29 31  1  0  0  0  0
 30 29  1  0  0  0  0
 32 33  2  0  0  0  0
 33 34  1  0  0  0  0
 34 29  1  0  0  0  0
 35 34  2  0  0  0  0
 36 32  1  0  0  0  0
 36 35  1  0  0  0  0
 37 32  1  0  0  0  0
 37 38  1  0  0  0  0
 39 37  1  0  0  0  0
 40 37  1  0  0  0  0
 41 45  2  0  0  0  0
 41  8  1  0  0  0  0
 42 41  1  0  0  0  0
 43 42  2  0  0  0  0
 43 44  1  0  0  0  0
 44 45  1  0  0  0  0
 45 48  1  0  0  0  0
 46 42  1  0  0  0  0
 47 44  1  0  0  0  0
M  END
>  <MODEL>
16

>  <REMARK>
 VINA RESULT:    -7.651      2.761      8.369
 INTER + INTRA:          -9.490
 INTER:                 -10.132
 INTRA:                   0.641
 UNBOUND:                 0.621
  Name = 
  6 active torsions:
  status: ('A' for Active; 'I' for Inactive)
    1  A    between atoms: C_1  and  C_2
    2  A    between atoms: C_4  and  C_5
    3  A    between atoms: C_5  and  O_6
    4  A    between atoms: O_6  and  C_7
    5  A    between atoms: C_11  and  C_12
    6  A    between atoms: C_19  and  C_20
                            x       y       z     vdW  Elec       q    Type
                         _______ _______ _______ _____ _____    ______ ____

>  <TORSDO>
F 6

$$$$
=
 OpenBabel07192307433D

 48 51  0  0  1  0  0  0  0  0999 V2000
    3.1180    6.2580   19.5180 C   0  0  0  0  0  0  0  0  0  0  0  0
    2.8110    5.7030   20.5720 O   0  0  0  0  0  0  0  0  0  0  0  0
    4.1230    5.8000   18.6560 N   0  0  0  0  0  0  0  0  0  0  0  0
    4.8830    6.7080   17.7930 C   0  0  0  0  0  0  0  0  0  0  0  0
    5.4710    5.9870   16.5870 C   0  0  0  0  0  0  0  0  0  0  0  0
    6.3100    4.7690   16.9690 C   0  0  0  0  0  0  0  0  0  0  0  0
    6.1820    4.3860   18.4420 C   0  0  0  0  0  0  0  0  0  0  0  0
    4.7540    4.5180   18.9950 C   0  0  2  0  0  0  0  0  0  0  0  0
    5.6810    7.1460   18.4060 H   0  0  0  0  0  0  0  0  0  0  0  0
    4.2690    7.5440   17.4490 H   0  0  0  0  0  0  0  0  0  0  0  0
    4.6550    5.6680   15.9270 H   0  0  0  0  0  0  0  0  0  0  0  0
    6.0790    6.6840   15.9990 H   0  0  0  0  0  0  0  0  0  0  0  0
    6.0240    3.9210   16.3340 H   0  0  0  0  0  0  0  0  0  0  0  0
    7.3660    4.9650   16.7450 H   0  0  0  0  0  0  0  0  0  0  0  0
    6.5720    3.3710   18.5960 H   0  0  0  0  0  0  0  0  0  0  0  0
    6.8360    5.0540   19.0210 H   0  0  0  0  0  0  0  0  0  0  0  0
    4.8370    4.4650   20.0890 H   0  0  0  0  0  0  0  0  0  0  0  0
    0.9420    9.3210   19.7930 C   0  0  0  0  0  0  0  0  0  0  0  0
    0.8950    9.7340   18.4590 C   0  0  0  0  0  0  0  0  0  0  0  0
    1.5680    9.0100   17.4670 C   0  0  0  0  0  0  0  0  0  0  0  0
    2.3010    7.8740   17.8050 C   0  0  0  0  0  0  0  0  0  0  0  0
    2.3640    7.4720   19.1430 C   0  0  0  0  0  0  0  0  0  0  0  0
    1.6690    8.1760   20.1290 C   0  0  0  0  0  0  0  0  0  0  0  0
    0.3200   10.5990   18.1450 H   0  0  0  0  0  0  0  0  0  0  0  0
    1.5030    9.3250   16.4290 H   0  0  0  0  0  0  0  0  0  0  0  0
    2.8030    7.2970   17.0340 H   0  0  0  0  0  0  0  0  0  0  0  0
    1.6900    7.8280   21.1590 H   0  0  0  0  0  0  0  0  0  0  0  0
    0.3160    9.9220   20.8480 O   0  0  0  0  0  0  0  0  0  0  0  0
    0.0960   11.3400   20.7990 C   0  0  0  0  0  0  0  0  0  0  0  0
    0.8250   11.8250   20.1370 H   0  0  0  0  0  0  0  0  0  0  0  0
    0.3210   11.7090   21.8070 H   0  0  0  0  0  0  0  0  0  0  0  0
   -3.1250   11.9790   19.4700 C   0  0  0  0  0  0  0  0  0  0  0  0
   -1.9650   11.3810   19.3270 N   0  0  0  0  0  0  0  0  0  0  0  0
   -1.3020   11.7530   20.4730 C   0  0  0  0  0  0  0  0  0  0  0  0
   -2.0090   12.5470   21.2940 N   0  0  0  0  0  0  0  0  0  0  0  0
   -3.2270   12.6960   20.6260 O   0  0  0  0  0  0  0  0  0  0  0  0
   -4.3010   11.9790   18.5830 C   0  0  0  0  0  0  0  0  0  0  0  0
   -5.1790   12.3710   19.1050 H   0  0  0  0  0  0  0  0  0  0  0  0
   -4.1170   12.6050   17.7040 H   0  0  0  0  0  0  0  0  0  0  0  0
   -4.5290   10.9640   18.2450 H   0  0  0  0  0  0  0  0  0  0  0  0
    3.8580    3.3930   18.5530 C   0  0  0  0  0  0  0  0  0  0  0  0
    2.9290    3.3500   17.4870 C   0  0  0  0  0  0  0  0  0  0  0  0
    2.3010    2.1750   17.3870 N   0  0  0  0  0  0  0  0  0  0  0  0
    2.7970    1.4670   18.4130 N   0  0  0  0  0  0  0  0  0  0  0  0
    3.7440    2.1410   19.1260 C   0  0  0  0  0  0  0  0  0  0  0  0
    2.6830    4.1270   16.7760 H   0  0  0  0  0  0  0  0  0  0  0  0
    2.4440    0.5290   18.5680 H   0  0  0  0  0  0  0  0  0  0  0  0
    4.2280    1.6930   19.9820 H   0  0  0  0  0  0  0  0  0  0  0  0
  1  2  2  0  0  0  0
  3  8  1  0  0  0  0
  3  1  1  0  0  0  0
  4  9  1  0  0  0  0
  4  3  1  0  0  0  0
  5  6  1  0  0  0  0
  5  4  1  0  0  0  0
  6  7  1  0  0  0  0
  7 15  1  0  0  0  0
  7  8  1  0  0  0  0
  7 16  1  0  0  0  0
  8 17  1  1  0  0  0
 10  4  1  0  0  0  0
 11  5  1  0  0  0  0
 12  5  1  0  0  0  0
 13  6  1  0  0  0  0
 14  6  1  0  0  0  0
 18 23  1  0  0  0  0
 18 28  1  0  0  0  0
 19 18  2  0  0  0  0
 20 21  2  0  0  0  0
 20 19  1  0  0  0  0
 21 22  1  0  0  0  0
 22  1  1  0  0  0  0
 22 23  2  0  0  0  0
 23 27  1  0  0  0  0
 24 19  1  0  0  0  0
 25 20  1  0  0  0  0
 26 21  1  0  0  0  0
 29 28  1  0  0  0  0
 29 31  1  0  0  0  0
 30 29  1  0  0  0  0
 32 36  1  0  0  0  0
 33 32  2  0  0  0  0
 33 34  1  0  0  0  0
 34 29  1  0  0  0  0
 34 35  2  0  0  0  0
 36 35  1  0  0  0  0
 37 38  1  0  0  0  0
 37 32  1  0  0  0  0
 39 37  1  0  0  0  0
 40 37  1  0  0  0  0
 41  8  1  0  0  0  0
 41 45  2  0  0  0  0
 42 41  1  0  0  0  0
 43 42  2  0  0  0  0
 43 44  1  0  0  0  0
 44 47  1  0  0  0  0
 44 45  1  0  0  0  0
 45 48  1  0  0  0  0
 46 42  1  0  0  0  0
M  END
>  <MODEL>
17

>  <REMARK>
 VINA RESULT:    -7.650      2.255      3.420
 INTER + INTRA:          -9.489
 INTER:                  -9.470
 INTRA:                  -0.018
 UNBOUND:                 0.621
  Name = 
  6 active torsions:
  status: ('A' for Active; 'I' for Inactive)
    1  A    between atoms: C_1  and  C_2
    2  A    between atoms: C_4  and  C_5
    3  A    between atoms: C_5  and  O_6
    4  A    between atoms: O_6  and  C_7
    5  A    between atoms: C_11  and  C_12
    6  A    between atoms: C_19  and  C_20
                            x       y       z     vdW  Elec       q    Type
                         _______ _______ _______ _____ _____    ______ ____

>  <TORSDO>
F 6

$$$$
=
 OpenBabel07192307433D

 48 51  0  0  1  0  0  0  0  0999 V2000
   -0.5580   10.8620   19.2740 C   0  0  0  0  0  0  0  0  0  0  0  0
   -1.5390   10.6250   18.5700 O   0  0  0  0  0  0  0  0  0  0  0  0
   -0.2780   12.1180   19.8280 N   0  0  0  0  0  0  0  0  0  0  0  0
    1.0910   12.5560   20.1140 C   0  0  0  0  0  0  0  0  0  0  0  0
    1.1310   13.6340   21.1890 C   0  0  0  0  0  0  0  0  0  0  0  0
    0.2320   14.8280   20.8720 C   0  0  0  0  0  0  0  0  0  0  0  0
   -0.6960   14.5860   19.6830 C   0  0  0  0  0  0  0  0  0  0  0  0
   -1.2870   13.1670   19.6370 C   0  0  2  0  0  0  0  0  0  0  0  0
    1.5130   12.9340   19.1740 H   0  0  0  0  0  0  0  0  0  0  0  0
    1.7260   11.7200   20.4180 H   0  0  0  0  0  0  0  0  0  0  0  0
    0.8230   13.1970   22.1470 H   0  0  0  0  0  0  0  0  0  0  0  0
    2.1630   13.9770   21.3320 H   0  0  0  0  0  0  0  0  0  0  0  0
   -0.3560   15.0820   21.7620 H   0  0  0  0  0  0  0  0  0  0  0  0
    0.8510   15.7090   20.6620 H   0  0  0  0  0  0  0  0  0  0  0  0
   -1.4900   15.3440   19.6730 H   0  0  0  0  0  0  0  0  0  0  0  0
   -0.1140   14.7440   18.7640 H   0  0  0  0  0  0  0  0  0  0  0  0
   -1.7160   13.0410   18.6330 H   0  0  0  0  0  0  0  0  0  0  0  0
    2.0360    8.1780   18.7720 C   0  0  0  0  0  0  0  0  0  0  0  0
    2.0750    7.6030   20.0460 C   0  0  0  0  0  0  0  0  0  0  0  0
    1.2490    8.0870   21.0680 C   0  0  0  0  0  0  0  0  0  0  0  0
    0.3880    9.1560   20.8250 C   0  0  0  0  0  0  0  0  0  0  0  0
    0.3640    9.7430   19.5570 C   0  0  0  0  0  0  0  0  0  0  0  0
    1.1650    9.2420   18.5280 C   0  0  0  0  0  0  0  0  0  0  0  0
    2.7130    6.7560   20.2760 H   0  0  0  0  0  0  0  0  0  0  0  0
    1.2680    7.6170   22.0470 H   0  0  0  0  0  0  0  0  0  0  0  0
   -0.2720    9.5160   21.6100 H   0  0  0  0  0  0  0  0  0  0  0  0
    1.1060    9.6790   17.5340 H   0  0  0  0  0  0  0  0  0  0  0  0
    2.7700    7.7880   17.6880 O   0  0  0  0  0  0  0  0  0  0  0  0
    3.9600    7.0140   17.9050 C   0  0  0  0  0  0  0  0  0  0  0  0
    4.3360    7.1540   18.9270 H   0  0  0  0  0  0  0  0  0  0  0  0
    4.7220    7.4510   17.2480 H   0  0  0  0  0  0  0  0  0  0  0  0
    3.1910    3.5780   17.5090 C   0  0  0  0  0  0  0  0  0  0  0  0
    2.8980    4.7210   18.0850 N   0  0  0  0  0  0  0  0  0  0  0  0
    3.8450    5.5660   17.5550 C   0  0  0  0  0  0  0  0  0  0  0  0
    4.6930    4.9830   16.6930 N   0  0  0  0  0  0  0  0  0  0  0  0
    4.2550    3.6570   16.6590 O   0  0  0  0  0  0  0  0  0  0  0  0
    2.5450    2.2610   17.6460 C   0  0  0  0  0  0  0  0  0  0  0  0
    3.0490    1.5170   17.0210 H   0  0  0  0  0  0  0  0  0  0  0  0
    2.5870    1.9210   18.6850 H   0  0  0  0  0  0  0  0  0  0  0  0
    1.4970    2.3120   17.3390 H   0  0  0  0  0  0  0  0  0  0  0  0
   -2.3980   12.9730   20.6330 C   0  0  0  0  0  0  0  0  0  0  0  0
   -2.3240   12.7000   22.0190 C   0  0  0  0  0  0  0  0  0  0  0  0
   -3.5240   12.5880   22.5960 N   0  0  0  0  0  0  0  0  0  0  0  0
   -4.3770   12.7530   21.5740 N   0  0  0  0  0  0  0  0  0  0  0  0
   -3.7570   13.0060   20.3870 C   0  0  0  0  0  0  0  0  0  0  0  0
   -1.4440   12.5770   22.6360 H   0  0  0  0  0  0  0  0  0  0  0  0
   -5.3730   12.6790   21.7590 H   0  0  0  0  0  0  0  0  0  0  0  0
   -4.3220   13.1580   19.4780 H   0  0  0  0  0  0  0  0  0  0  0  0
  1 22  1  0  0  0  0
  1  3  1  0  0  0  0
  2  1  2  0  0  0  0
  3  4  1  0  0  0  0
  4 10  1  0  0  0  0
  4  5  1  0  0  0  0
  5 12  1  0  0  0  0
  5 11  1  0  0  0  0
  6  5  1  0  0  0  0
  6 13  1  0  0  0  0
  7  6  1  0  0  0  0
  8 17  1  6  0  0  0
  8  7  1  0  0  0  0
  8  3  1  0  0  0  0
  8 41  1  0  0  0  0
  9  4  1  0  0  0  0
 14  6  1  0  0  0  0
 15  7  1  0  0  0  0
 16  7  1  0  0  0  0
 18 19  1  0  0  0  0
 19 24  1  0  0  0  0
 19 20  2  0  0  0  0
 20 25  1  0  0  0  0
 21 20  1  0  0  0  0
 21 26  1  0  0  0  0
 22 21  2  0  0  0  0
 23 18  2  0  0  0  0
 23 22  1  0  0  0  0
 27 23  1  0  0  0  0
 28 29  1  0  0  0  0
 28 18  1  0  0  0  0
 29 30  1  0  0  0  0
 31 29  1  0  0  0  0
 32 37  1  0  0  0  0
 32 33  2  0  0  0  0
 34 29  1  0  0  0  0
 34 33  1  0  0  0  0
 35 34  2  0  0  0  0
 36 35  1  0  0  0  0
 36 32  1  0  0  0  0
 37 39  1  0  0  0  0
 38 37  1  0  0  0  0
 40 37  1  0  0  0  0
 41 42  1  0  0  0  0
 42 43  2  0  0  0  0
 42 46  1  0  0  0  0
 44 47  1  0  0  0  0
 44 43  1  0  0  0  0
 45 41  2  0  0  0  0
 45 44  1  0  0  0  0
 48 45  1  0  0  0  0
M  END
>  <MODEL>
18

>  <REMARK>
 VINA RESULT:    -7.619      2.613      8.990
 INTER + INTRA:          -9.448
 INTER:                  -8.681
 INTRA:                  -0.767
 UNBOUND:                 0.621
  Name = 
  6 active torsions:
  status: ('A' for Active; 'I' for Inactive)
    1  A    between atoms: C_1  and  C_2
    2  A    between atoms: C_4  and  C_5
    3  A    between atoms: C_5  and  O_6
    4  A    between atoms: O_6  and  C_7
    5  A    between atoms: C_11  and  C_12
    6  A    between atoms: C_19  and  C_20
                            x       y       z     vdW  Elec       q    Type
                         _______ _______ _______ _____ _____    ______ ____

>  <TORSDO>
F 6

$$$$
=
 OpenBabel07192307433D

 48 51  0  0  1  0  0  0  0  0999 V2000
    3.7760    6.5590   17.7800 C   0  0  0  0  0  0  0  0  0  0  0  0
    3.7510    7.7810   17.6480 O   0  0  0  0  0  0  0  0  0  0  0  0
    4.7000    5.7210   17.1410 N   0  0  0  0  0  0  0  0  0  0  0  0
    4.3860    4.3310   16.8010 C   0  0  0  0  0  0  0  0  0  0  0  0
    5.6420    3.4810   16.6620 C   0  0  0  0  0  0  0  0  0  0  0  0
    6.6550    4.0670   15.6790 C   0  0  0  0  0  0  0  0  0  0  0  0
    6.3120    5.4880   15.2350 C   0  0  0  0  0  0  0  0  0  0  0  0
    5.7610    6.3740   16.3640 C   0  0  2  0  0  0  0  0  0  0  0  0
    3.8260    4.3470   15.8560 H   0  0  0  0  0  0  0  0  0  0  0  0
    3.7220    3.8750   17.5400 H   0  0  0  0  0  0  0  0  0  0  0  0
    6.1150    3.3770   17.6460 H   0  0  0  0  0  0  0  0  0  0  0  0
    5.3710    2.4660   16.3490 H   0  0  0  0  0  0  0  0  0  0  0  0
    7.6520    4.0460   16.1350 H   0  0  0  0  0  0  0  0  0  0  0  0
    6.7200    3.4260   14.7920 H   0  0  0  0  0  0  0  0  0  0  0  0
    7.1900    5.9500   14.7650 H   0  0  0  0  0  0  0  0  0  0  0  0
    5.5470    5.4190   14.4500 H   0  0  0  0  0  0  0  0  0  0  0  0
    5.3250    7.2590   15.8810 H   0  0  0  0  0  0  0  0  0  0  0  0
    1.2830    6.1600   20.5760 C   0  0  0  0  0  0  0  0  0  0  0  0
    0.9240    4.8180   20.4230 C   0  0  0  0  0  0  0  0  0  0  0  0
    1.5010    4.0400   19.4120 C   0  0  0  0  0  0  0  0  0  0  0  0
    2.4320    4.6020   18.5400 C   0  0  0  0  0  0  0  0  0  0  0  0
    2.7750    5.9500   18.6800 C   0  0  0  0  0  0  0  0  0  0  0  0
    2.2240    6.7190   19.7070 C   0  0  0  0  0  0  0  0  0  0  0  0
    0.2210    4.3310   21.0910 H   0  0  0  0  0  0  0  0  0  0  0  0
    1.2350    2.9910   19.3180 H   0  0  0  0  0  0  0  0  0  0  0  0
    2.8990    3.9930   17.7700 H   0  0  0  0  0  0  0  0  0  0  0  0
    2.5310    7.7550   19.8330 H   0  0  0  0  0  0  0  0  0  0  0  0
    0.8140    7.0190   21.5290 O   0  0  0  0  0  0  0  0  0  0  0  0
    1.3890    8.3310   21.6150 C   0  0  0  0  0  0  0  0  0  0  0  0
    2.1320    8.4850   20.8210 H   0  0  0  0  0  0  0  0  0  0  0  0
    1.9540    8.3460   22.5550 H   0  0  0  0  0  0  0  0  0  0  0  0
   -0.9390   10.8860   22.3940 C   0  0  0  0  0  0  0  0  0  0  0  0
   -0.1370    9.9450   22.8340 N   0  0  0  0  0  0  0  0  0  0  0  0
    0.4030    9.4520   21.6690 C   0  0  0  0  0  0  0  0  0  0  0  0
   -0.0400   10.0520   20.5520 N   0  0  0  0  0  0  0  0  0  0  0  0
   -0.9330   11.0110   21.0350 O   0  0  0  0  0  0  0  0  0  0  0  0
   -1.8150   11.8030   23.1420 C   0  0  0  0  0  0  0  0  0  0  0  0
   -1.2700   12.2710   23.9680 H   0  0  0  0  0  0  0  0  0  0  0  0
   -2.1880   12.5960   22.4850 H   0  0  0  0  0  0  0  0  0  0  0  0
   -2.6720   11.2650   23.5580 H   0  0  0  0  0  0  0  0  0  0  0  0
    6.8370    6.8520   17.3010 C   0  0  0  0  0  0  0  0  0  0  0  0
    7.4940    8.1040   17.3500 C   0  0  0  0  0  0  0  0  0  0  0  0
    8.4070    8.1780   18.3230 N   0  0  0  0  0  0  0  0  0  0  0  0
    8.3670    6.9590   18.8820 N   0  0  0  0  0  0  0  0  0  0  0  0
    7.4330    6.1390   18.3230 C   0  0  0  0  0  0  0  0  0  0  0  0
    7.3470    8.9680   16.7170 H   0  0  0  0  0  0  0  0  0  0  0  0
    9.0070    6.7550   19.6430 H   0  0  0  0  0  0  0  0  0  0  0  0
    7.2920    5.1260   18.6730 H   0  0  0  0  0  0  0  0  0  0  0  0
  1 22  1  0  0  0  0
  2  1  2  0  0  0  0
  3  1  1  0  0  0  0
  4  3  1  0  0  0  0
  4 10  1  0  0  0  0
  5  4  1  0  0  0  0
  5 11  1  0  0  0  0
  6 13  1  0  0  0  0
  6  5  1  0  0  0  0
  7  6  1  0  0  0  0
  7  8  1  0  0  0  0
  8 17  1  6  0  0  0
  8  3  1  0  0  0  0
  8 41  1  0  0  0  0
  9  4  1  0  0  0  0
 12  5  1  0  0  0  0
 14  6  1  0  0  0  0
 15  7  1  0  0  0  0
 16  7  1  0  0  0  0
 18 28  1  0  0  0  0
 19 18  1  0  0  0  0
 19 24  1  0  0  0  0
 20 19  2  0  0  0  0
 21 22  2  0  0  0  0
 21 20  1  0  0  0  0
 22 23  1  0  0  0  0
 23 27  1  0  0  0  0
 23 18  2  0  0  0  0
 25 20  1  0  0  0  0
 26 21  1  0  0  0  0
 28 29  1  0  0  0  0
 29 34  1  0  0  0  0
 29 31  1  0  0  0  0
 30 29  1  0  0  0  0
 32 33  2  0  0  0  0
 32 37  1  0  0  0  0
 34 33  1  0  0  0  0
 35 36  1  0  0  0  0
 35 34  2  0  0  0  0
 36 32  1  0  0  0  0
 37 40  1  0  0  0  0
 37 38  1  0  0  0  0
 39 37  1  0  0  0  0
 41 42  1  0  0  0  0
 41 45  2  0  0  0  0
 42 43  2  0  0  0  0
 43 44  1  0  0  0  0
 44 47  1  0  0  0  0
 45 48  1  0  0  0  0
 45 44  1  0  0  0  0
 46 42  1  0  0  0  0
M  END
>  <MODEL>
19

>  <REMARK>
 VINA RESULT:    -7.598      3.166      4.204
 INTER + INTRA:          -9.420
 INTER:                  -9.692
 INTRA:                   0.272
 UNBOUND:                 0.621
  Name = 
  6 active torsions:
  status: ('A' for Active; 'I' for Inactive)
    1  A    between atoms: C_1  and  C_2
    2  A    between atoms: C_4  and  C_5
    3  A    between atoms: C_5  and  O_6
    4  A    between atoms: O_6  and  C_7
    5  A    between atoms: C_11  and  C_12
    6  A    between atoms: C_19  and  C_20
                            x       y       z     vdW  Elec       q    Type
                         _______ _______ _______ _____ _____    ______ ____

>  <TORSDO>
F 6

$$$$
=
 OpenBabel07192307433D

 48 51  0  0  1  0  0  0  0  0999 V2000
    4.1720    3.4720   18.0660 C   0  0  0  0  0  0  0  0  0  0  0  0
    3.9220    2.8020   17.0650 O   0  0  0  0  0  0  0  0  0  0  0  0
    5.3590    4.1920   18.2500 N   0  0  0  0  0  0  0  0  0  0  0  0
    5.9140    4.4570   19.5800 C   0  0  0  0  0  0  0  0  0  0  0  0
    6.8220    5.6790   19.5860 C   0  0  0  0  0  0  0  0  0  0  0  0
    7.9320    5.6040   18.5380 C   0  0  0  0  0  0  0  0  0  0  0  0
    7.7530    4.4520   17.5510 C   0  0  0  0  0  0  0  0  0  0  0  0
    6.2950    4.2270   17.1180 C   0  0  2  0  0  0  0  0  0  0  0  0
    6.4720    3.5610   19.8810 H   0  0  0  0  0  0  0  0  0  0  0  0
    5.1260    4.5900   20.3250 H   0  0  0  0  0  0  0  0  0  0  0  0
    6.2170    6.5760   19.4050 H   0  0  0  0  0  0  0  0  0  0  0  0
    7.2630    5.8080   20.5810 H   0  0  0  0  0  0  0  0  0  0  0  0
    7.9820    6.5570   17.9980 H   0  0  0  0  0  0  0  0  0  0  0  0
    8.9020    5.4930   19.0370 H   0  0  0  0  0  0  0  0  0  0  0  0
    8.4020    4.6070   16.6800 H   0  0  0  0  0  0  0  0  0  0  0  0
    8.1110    3.5340   18.0370 H   0  0  0  0  0  0  0  0  0  0  0  0
    6.2640    3.2440   16.6280 H   0  0  0  0  0  0  0  0  0  0  0  0
    1.6940    4.8340   20.5560 C   0  0  0  0  0  0  0  0  0  0  0  0
    1.2440    3.6550   21.1560 C   0  0  0  0  0  0  0  0  0  0  0  0
    1.7550    2.4140   20.7540 C   0  0  0  0  0  0  0  0  0  0  0  0
    2.7100    2.3450   19.7400 C   0  0  0  0  0  0  0  0  0  0  0  0
    3.1440    3.5230   19.1270 C   0  0  0  0  0  0  0  0  0  0  0  0
    2.6580    4.7630   19.5470 C   0  0  0  0  0  0  0  0  0  0  0  0
    0.5180    3.6600   21.9630 H   0  0  0  0  0  0  0  0  0  0  0  0
    1.4180    1.5060   21.2450 H   0  0  0  0  0  0  0  0  0  0  0  0
    3.1250    1.3850   19.4450 H   0  0  0  0  0  0  0  0  0  0  0  0
    3.0360    5.6760   19.0920 H   0  0  0  0  0  0  0  0  0  0  0  0
    1.2950    6.1030   20.8680 O   0  0  0  0  0  0  0  0  0  0  0  0
    1.9590    7.2070   20.2350 C   0  0  0  0  0  0  0  0  0  0  0  0
    2.1370    6.9990   19.1720 H   0  0  0  0  0  0  0  0  0  0  0  0
    2.9530    7.2580   20.6960 H   0  0  0  0  0  0  0  0  0  0  0  0
    0.3070   10.1480   21.3190 C   0  0  0  0  0  0  0  0  0  0  0  0
    0.7670    8.9570   21.6260 N   0  0  0  0  0  0  0  0  0  0  0  0
    1.3060    8.5360   20.4330 C   0  0  0  0  0  0  0  0  0  0  0  0
    1.1880    9.4180   19.4260 N   0  0  0  0  0  0  0  0  0  0  0  0
    0.5240   10.4940   20.0180 O   0  0  0  0  0  0  0  0  0  0  0  0
   -0.3870   11.1360   22.1630 C   0  0  0  0  0  0  0  0  0  0  0  0
   -0.2830   10.8800   23.2220 H   0  0  0  0  0  0  0  0  0  0  0  0
    0.0350   12.1340   22.0090 H   0  0  0  0  0  0  0  0  0  0  0  0
   -1.4540   11.1680   21.9220 H   0  0  0  0  0  0  0  0  0  0  0  0
    5.8260    5.2490   16.1190 C   0  0  0  0  0  0  0  0  0  0  0  0
    5.1140    6.4530   16.3310 C   0  0  0  0  0  0  0  0  0  0  0  0
    4.8620    7.1190   15.2010 N   0  0  0  0  0  0  0  0  0  0  0  0
    5.3800    6.3270   14.2500 N   0  0  0  0  0  0  0  0  0  0  0  0
    5.9840    5.2100   14.7470 C   0  0  0  0  0  0  0  0  0  0  0  0
    4.7670    6.8750   17.2640 H   0  0  0  0  0  0  0  0  0  0  0  0
    5.2850    6.6100   13.2800 H   0  0  0  0  0  0  0  0  0  0  0  0
    6.4430    4.4810   14.0940 H   0  0  0  0  0  0  0  0  0  0  0  0
  1  3  1  0  0  0  0
  1 22  1  0  0  0  0
  2  1  2  0  0  0  0
  3  4  1  0  0  0  0
  4  5  1  0  0  0  0
  4  9  1  0  0  0  0
  4 10  1  0  0  0  0
  5 12  1  0  0  0  0
  6 14  1  0  0  0  0
  6  5  1  0  0  0  0
  7 16  1  0  0  0  0
  7  6  1  0  0  0  0
  8 17  1  6  0  0  0
  8  7  1  0  0  0  0
  8  3  1  0  0  0  0
 11  5  1  0  0  0  0
 13  6  1  0  0  0  0
 15  7  1  0  0  0  0
 18 28  1  0  0  0  0
 18 19  1  0  0  0  0
 19 24  1  0  0  0  0
 20 19  2  0  0  0  0
 20 25  1  0  0  0  0
 21 20  1  0  0  0  0
 22 23  1  0  0  0  0
 22 21  2  0  0  0  0
 23 18  2  0  0  0  0
 26 21  1  0  0  0  0
 27 23  1  0  0  0  0
 29 34  1  0  0  0  0
 29 31  1  0  0  0  0
 29 28  1  0  0  0  0
 30 29  1  0  0  0  0
 32 33  2  0  0  0  0
 32 37  1  0  0  0  0
 34 33  1  0  0  0  0
 35 36  1  0  0  0  0
 35 34  2  0  0  0  0
 36 32  1  0  0  0  0
 37 38  1  0  0  0  0
 39 37  1  0  0  0  0
 40 37  1  0  0  0  0
 41 42  1  0  0  0  0
 41  8  1  0  0  0  0
 42 46  1  0  0  0  0
 43 42  2  0  0  0  0
 44 45  1  0  0  0  0
 44 43  1  0  0  0  0
 45 41  2  0  0  0  0
 47 44  1  0  0  0  0
 48 45  1  0  0  0  0
M  END
>  <MODEL>
20

>  <REMARK>
 VINA RESULT:    -7.581      3.184      4.968
 INTER + INTRA:          -9.398
 INTER:                  -8.600
 INTRA:                  -0.798
 UNBOUND:                 0.621
  Name = 
  6 active torsions:
  status: ('A' for Active; 'I' for Inactive)
    1  A    between atoms: C_1  and  C_2
    2  A    between atoms: C_4  and  C_5
    3  A    between atoms: C_5  and  O_6
    4  A    between atoms: O_6  and  C_7
    5  A    between atoms: C_11  and  C_12
    6  A    between atoms: C_19  and  C_20
                            x       y       z     vdW  Elec       q    Type
                         _______ _______ _______ _____ _____    ______ ____

>  <TORSDO>
F 6

$$$$
=
 OpenBabel07192307433D

 48 51  0  0  1  0  0  0  0  0999 V2000
   -0.6400   10.8360   19.4170 C   0  0  0  0  0  0  0  0  0  0  0  0
   -1.5870   10.5700   18.6780 O   0  0  0  0  0  0  0  0  0  0  0  0
   -0.3830   12.1130   19.9320 N   0  0  0  0  0  0  0  0  0  0  0  0
    0.9720   12.5620   20.2640 C   0  0  0  0  0  0  0  0  0  0  0  0
    0.9640   13.6820   21.2950 C   0  0  0  0  0  0  0  0  0  0  0  0
    0.0830   14.8630   20.8880 C   0  0  0  0  0  0  0  0  0  0  0  0
   -0.7890   14.5730   19.6680 C   0  0  0  0  0  0  0  0  0  0  0  0
   -1.3800   13.1540   19.6520 C   0  0  2  0  0  0  0  0  0  0  0  0
    1.4380   12.9010   19.3300 H   0  0  0  0  0  0  0  0  0  0  0  0
    1.5900   11.7390   20.6310 H   0  0  0  0  0  0  0  0  0  0  0  0
    0.6100   13.2850   22.2540 H   0  0  0  0  0  0  0  0  0  0  0  0
    1.9880   14.0310   21.4720 H   0  0  0  0  0  0  0  0  0  0  0  0
   -0.5450   15.1530   21.7390 H   0  0  0  0  0  0  0  0  0  0  0  0
    0.7130   15.7340   20.6720 H   0  0  0  0  0  0  0  0  0  0  0  0
   -1.5800   15.3300   19.5910 H   0  0  0  0  0  0  0  0  0  0  0  0
   -0.1640   14.6930   18.7720 H   0  0  0  0  0  0  0  0  0  0  0  0
   -1.7610   12.9870   18.6350 H   0  0  0  0  0  0  0  0  0  0  0  0
    1.9850    8.1470   19.1510 C   0  0  0  0  0  0  0  0  0  0  0  0
    1.9490    7.6110   20.4420 C   0  0  0  0  0  0  0  0  0  0  0  0
    1.0630    8.1220   21.3980 C   0  0  0  0  0  0  0  0  0  0  0  0
    0.2150    9.1800   21.0720 C   0  0  0  0  0  0  0  0  0  0  0  0
    0.2660    9.7290   19.7880 C   0  0  0  0  0  0  0  0  0  0  0  0
    1.1280    9.2000   18.8240 C   0  0  0  0  0  0  0  0  0  0  0  0
    2.5740    6.7730   20.7350 H   0  0  0  0  0  0  0  0  0  0  0  0
    1.0240    7.6820   22.3900 H   0  0  0  0  0  0  0  0  0  0  0  0
   -0.4900    9.5610   21.8060 H   0  0  0  0  0  0  0  0  0  0  0  0
    1.1280    9.6070   17.8160 H   0  0  0  0  0  0  0  0  0  0  0  0
    2.7830    7.7280   18.1250 O   0  0  0  0  0  0  0  0  0  0  0  0
    2.8850    6.3190   17.8640 C   0  0  0  0  0  0  0  0  0  0  0  0
    2.5850    6.0910   16.8330 H   0  0  0  0  0  0  0  0  0  0  0  0
    2.1300    5.8450   18.5030 H   0  0  0  0  0  0  0  0  0  0  0  0
    6.1780    5.0250   18.0470 C   0  0  0  0  0  0  0  0  0  0  0  0
    5.2690    5.6480   17.3330 N   0  0  0  0  0  0  0  0  0  0  0  0
    4.2050    5.7070   18.2020 C   0  0  0  0  0  0  0  0  0  0  0  0
    4.4320    5.1460   19.4000 N   0  0  0  0  0  0  0  0  0  0  0  0
    5.7500    4.6940   19.2990 O   0  0  0  0  0  0  0  0  0  0  0  0
    7.5580    4.6510   17.6950 C   0  0  0  0  0  0  0  0  0  0  0  0
    8.0440    5.4510   17.1270 H   0  0  0  0  0  0  0  0  0  0  0  0
    8.1470    4.4680   18.6000 H   0  0  0  0  0  0  0  0  0  0  0  0
    7.5680    3.7430   17.0840 H   0  0  0  0  0  0  0  0  0  0  0  0
   -2.5360   13.0000   20.6020 C   0  0  0  0  0  0  0  0  0  0  0  0
   -2.5280   12.7260   21.9900 C   0  0  0  0  0  0  0  0  0  0  0  0
   -3.7540   12.6570   22.5170 N   0  0  0  0  0  0  0  0  0  0  0  0
   -4.5590   12.8510   21.4620 N   0  0  0  0  0  0  0  0  0  0  0  0
   -3.8820   13.0810   20.3010 C   0  0  0  0  0  0  0  0  0  0  0  0
   -1.6790   12.5730   22.6420 H   0  0  0  0  0  0  0  0  0  0  0  0
   -5.5630   12.8130   21.6060 H   0  0  0  0  0  0  0  0  0  0  0  0
   -4.4040   13.2510   19.3690 H   0  0  0  0  0  0  0  0  0  0  0  0
  1 22  1  0  0  0  0
  1  3  1  0  0  0  0
  2  1  2  0  0  0  0
  3  4  1  0  0  0  0
  4 10  1  0  0  0  0
  4  5  1  0  0  0  0
  5 12  1  0  0  0  0
  5 11  1  0  0  0  0
  6  5  1  0  0  0  0
  6 13  1  0  0  0  0
  7  6  1  0  0  0  0
  8 17  1  6  0  0  0
  8  7  1  0  0  0  0
  8  3  1  0  0  0  0
  8 41  1  0  0  0  0
  9  4  1  0  0  0  0
 14  6  1  0  0  0  0
 15  7  1  0  0  0  0
 16  7  1  0  0  0  0
 18 19  1  0  0  0  0
 19 24  1  0  0  0  0
 19 20  2  0  0  0  0
 20 25  1  0  0  0  0
 21 20  1  0  0  0  0
 21 26  1  0  0  0  0
 22 21  2  0  0  0  0
 23 18  2  0  0  0  0
 23 22  1  0  0  0  0
 27 23  1  0  0  0  0
 28 18  1  0  0  0  0
 29 28  1  0  0  0  0
 29 34  1  0  0  0  0
 29 31  1  0  0  0  0
 30 29  1  0  0  0  0
 32 36  1  0  0  0  0
 33 32  2  0  0  0  0
 33 34  1  0  0  0  0
 34 35  2  0  0  0  0
 36 35  1  0  0  0  0
 37 32  1  0  0  0  0
 37 39  1  0  0  0  0
 38 37  1  0  0  0  0
 40 37  1  0  0  0  0
 41 42  1  0  0  0  0
 42 43  2  0  0  0  0
 42 46  1  0  0  0  0
 44 47  1  0  0  0  0
 44 43  1  0  0  0  0
 45 41  2  0  0  0  0
 45 44  1  0  0  0  0
 48 45  1  0  0  0  0
M  END
>  <MODEL>
21

>  <REMARK>
 VINA RESULT:    -7.540      2.663      9.277
 INTER + INTRA:          -9.344
 INTER:                  -8.558
 INTRA:                  -0.786
 UNBOUND:                 0.621
  Name = 
  6 active torsions:
  status: ('A' for Active; 'I' for Inactive)
    1  A    between atoms: C_1  and  C_2
    2  A    between atoms: C_4  and  C_5
    3  A    between atoms: C_5  and  O_6
    4  A    between atoms: O_6  and  C_7
    5  A    between atoms: C_11  and  C_12
    6  A    between atoms: C_19  and  C_20
                            x       y       z     vdW  Elec       q    Type
                         _______ _______ _______ _____ _____    ______ ____

>  <TORSDO>
F 6

$$$$
=
 OpenBabel07192307433D

 48 51  0  0  1  0  0  0  0  0999 V2000
    0.4200   10.3290   20.0590 C   0  0  0  0  0  0  0  0  0  0  0  0
    0.7920   10.7120   21.1670 O   0  0  0  0  0  0  0  0  0  0  0  0
   -0.7220   10.8120   19.4070 N   0  0  0  0  0  0  0  0  0  0  0  0
   -1.4820    9.9940   18.4580 C   0  0  0  0  0  0  0  0  0  0  0  0
   -2.2800   10.8480   17.4820 C   0  0  0  0  0  0  0  0  0  0  0  0
   -3.1880   11.8620   18.1770 C   0  0  0  0  0  0  0  0  0  0  0  0
   -2.9250   11.9770   19.6780 C   0  0  0  0  0  0  0  0  0  0  0  0
   -1.4350   11.9210   20.0530 C   0  0  2  0  0  0  0  0  0  0  0  0
   -2.1530    9.3550   19.0470 H   0  0  0  0  0  0  0  0  0  0  0  0
   -0.8320    9.3180   17.8980 H   0  0  0  0  0  0  0  0  0  0  0  0
   -1.5850   11.3820   16.8220 H   0  0  0  0  0  0  0  0  0  0  0  0
   -2.8800   10.2030   16.8290 H   0  0  0  0  0  0  0  0  0  0  0  0
   -3.0670   12.8410   17.6980 H   0  0  0  0  0  0  0  0  0  0  0  0
   -4.2370   11.5820   18.0230 H   0  0  0  0  0  0  0  0  0  0  0  0
   -3.3950   12.8900   20.0660 H   0  0  0  0  0  0  0  0  0  0  0  0
   -3.4340   11.1380   20.1730 H   0  0  0  0  0  0  0  0  0  0  0  0
   -1.3930   11.7590   21.1380 H   0  0  0  0  0  0  0  0  0  0  0  0
    2.3950    7.1790   19.4530 C   0  0  0  0  0  0  0  0  0  0  0  0
    2.8360    7.3890   18.1430 C   0  0  0  0  0  0  0  0  0  0  0  0
    2.4940    8.5630   17.4590 C   0  0  0  0  0  0  0  0  0  0  0  0
    1.7010    9.5280   18.0770 C   0  0  0  0  0  0  0  0  0  0  0  0
    1.2440    9.3080   19.3790 C   0  0  0  0  0  0  0  0  0  0  0  0
    1.6080    8.1520   20.0740 C   0  0  0  0  0  0  0  0  0  0  0  0
    3.4730    6.6770   17.6290 H   0  0  0  0  0  0  0  0  0  0  0  0
    2.8640    8.7280   16.4510 H   0  0  0  0  0  0  0  0  0  0  0  0
    1.4560   10.4500   17.5560 H   0  0  0  0  0  0  0  0  0  0  0  0
    1.2820    8.0130   21.1020 H   0  0  0  0  0  0  0  0  0  0  0  0
    2.6730    6.0940   20.2350 O   0  0  0  0  0  0  0  0  0  0  0  0
    2.8310    4.8140   19.6030 C   0  0  0  0  0  0  0  0  0  0  0  0
    1.9520    4.5700   18.9920 H   0  0  0  0  0  0  0  0  0  0  0  0
    2.8370    4.0810   20.4180 H   0  0  0  0  0  0  0  0  0  0  0  0
    6.1190    4.7170   18.2870 C   0  0  0  0  0  0  0  0  0  0  0  0
    5.3300    5.0660   19.2770 N   0  0  0  0  0  0  0  0  0  0  0  0
    4.1000    4.6400   18.8350 C   0  0  0  0  0  0  0  0  0  0  0  0
    4.1150    4.0550   17.6260 N   0  0  0  0  0  0  0  0  0  0  0  0
    5.4620    4.1040   17.2610 O   0  0  0  0  0  0  0  0  0  0  0  0
    7.5740    4.8870   18.1370 C   0  0  0  0  0  0  0  0  0  0  0  0
    7.8140    5.9050   17.8120 H   0  0  0  0  0  0  0  0  0  0  0  0
    8.0810    4.7040   19.0900 H   0  0  0  0  0  0  0  0  0  0  0  0
    7.9700    4.1890   17.3930 H   0  0  0  0  0  0  0  0  0  0  0  0
   -0.7180   13.2100   19.7580 C   0  0  0  0  0  0  0  0  0  0  0  0
   -0.1450   13.6620   18.5460 C   0  0  0  0  0  0  0  0  0  0  0  0
    0.4170   14.8700   18.6510 N   0  0  0  0  0  0  0  0  0  0  0  0
    0.2400   15.1860   19.9430 N   0  0  0  0  0  0  0  0  0  0  0  0
   -0.4500   14.2390   20.6400 C   0  0  0  0  0  0  0  0  0  0  0  0
   -0.1120   13.1620   17.5880 H   0  0  0  0  0  0  0  0  0  0  0  0
    0.6160   16.0650   20.2820 H   0  0  0  0  0  0  0  0  0  0  0  0
   -0.6640   14.3600   21.6930 H   0  0  0  0  0  0  0  0  0  0  0  0
  1  2  2  0  0  0  0
  3  8  1  0  0  0  0
  3  1  1  0  0  0  0
  4  9  1  0  0  0  0
  4  3  1  0  0  0  0
  5  6  1  0  0  0  0
  5  4  1  0  0  0  0
  6  7  1  0  0  0  0
  7  8  1  0  0  0  0
  7 15  1  0  0  0  0
  7 16  1  0  0  0  0
  8 17  1  1  0  0  0
 10  4  1  0  0  0  0
 11  5  1  0  0  0  0
 12  5  1  0  0  0  0
 13  6  1  0  0  0  0
 14  6  1  0  0  0  0
 18 23  1  0  0  0  0
 18 28  1  0  0  0  0
 19 18  2  0  0  0  0
 20 21  2  0  0  0  0
 20 19  1  0  0  0  0
 21 22  1  0  0  0  0
 22  1  1  0  0  0  0
 22 23  2  0  0  0  0
 23 27  1  0  0  0  0
 24 19  1  0  0  0  0
 25 20  1  0  0  0  0
 26 21  1  0  0  0  0
 29 28  1  0  0  0  0
 29 31  1  0  0  0  0
 30 29  1  0  0  0  0
 32 33  2  0  0  0  0
 34 33  1  0  0  0  0
 34 29  1  0  0  0  0
 35 34  2  0  0  0  0
 36 35  1  0  0  0  0
 36 32  1  0  0  0  0
 37 32  1  0  0  0  0
 37 39  1  0  0  0  0
 38 37  1  0  0  0  0
 40 37  1  0  0  0  0
 41  8  1  0  0  0  0
 41 45  2  0  0  0  0
 42 43  2  0  0  0  0
 42 41  1  0  0  0  0
 43 44  1  0  0  0  0
 44 47  1  0  0  0  0
 44 45  1  0  0  0  0
 45 48  1  0  0  0  0
 46 42  1  0  0  0  0
M  END
>  <MODEL>
22

>  <REMARK>
 VINA RESULT:    -7.482      2.423      8.689
 INTER + INTRA:          -9.267
 INTER:                  -9.010
 INTRA:                  -0.257
 UNBOUND:                 0.621
  Name = 
  6 active torsions:
  status: ('A' for Active; 'I' for Inactive)
    1  A    between atoms: C_1  and  C_2
    2  A    between atoms: C_4  and  C_5
    3  A    between atoms: C_5  and  O_6
    4  A    between atoms: O_6  and  C_7
    5  A    between atoms: C_11  and  C_12
    6  A    between atoms: C_19  and  C_20
                            x       y       z     vdW  Elec       q    Type
                         _______ _______ _______ _____ _____    ______ ____

>  <TORSDO>
F 6

$$$$
=
 OpenBabel07192307433D

 48 51  0  0  1  0  0  0  0  0999 V2000
   -0.2090   10.6820   19.1350 C   0  0  0  0  0  0  0  0  0  0  0  0
   -1.3570   10.4750   18.7440 O   0  0  0  0  0  0  0  0  0  0  0  0
    0.2000   11.8620   19.7700 N   0  0  0  0  0  0  0  0  0  0  0  0
    1.5760   12.3580   19.6810 C   0  0  0  0  0  0  0  0  0  0  0  0
    1.9300   13.2670   20.8490 C   0  0  0  0  0  0  0  0  0  0  0  0
    0.9450   14.4220   21.0280 C   0  0  0  0  0  0  0  0  0  0  0  0
   -0.3080   14.2850   20.1660 C   0  0  0  0  0  0  0  0  0  0  0  0
   -0.8450   12.8470   20.0770 C   0  0  2  0  0  0  0  0  0  0  0  0
    1.6640   12.9000   18.7310 H   0  0  0  0  0  0  0  0  0  0  0  0
    2.2970   11.5380   19.6310 H   0  0  0  0  0  0  0  0  0  0  0  0
    1.9570   12.6730   21.7710 H   0  0  0  0  0  0  0  0  0  0  0  0
    2.9440   13.6650   20.7160 H   0  0  0  0  0  0  0  0  0  0  0  0
    0.6680   14.4980   22.0860 H   0  0  0  0  0  0  0  0  0  0  0  0
    1.4410   15.3690   20.7820 H   0  0  0  0  0  0  0  0  0  0  0  0
   -1.0830   14.9720   20.5290 H   0  0  0  0  0  0  0  0  0  0  0  0
   -0.0560   14.6190   19.1500 H   0  0  0  0  0  0  0  0  0  0  0  0
   -1.5690   12.8350   19.2510 H   0  0  0  0  0  0  0  0  0  0  0  0
    1.9250    7.6430   19.7650 C   0  0  0  0  0  0  0  0  0  0  0  0
    2.6850    7.6040   18.5920 C   0  0  0  0  0  0  0  0  0  0  0  0
    2.5060    8.5740   17.5980 C   0  0  0  0  0  0  0  0  0  0  0  0
    1.5580    9.5820   17.7660 C   0  0  0  0  0  0  0  0  0  0  0  0
    0.7850    9.6080   18.9290 C   0  0  0  0  0  0  0  0  0  0  0  0
    0.9830    8.6600   19.9350 C   0  0  0  0  0  0  0  0  0  0  0  0
    3.4500    6.8510   18.4270 H   0  0  0  0  0  0  0  0  0  0  0  0
    3.1200    8.5490   16.7020 H   0  0  0  0  0  0  0  0  0  0  0  0
    1.4360   10.3490   17.0060 H   0  0  0  0  0  0  0  0  0  0  0  0
    0.4050    8.7170   20.8550 H   0  0  0  0  0  0  0  0  0  0  0  0
    2.0160    6.7740   20.8160 O   0  0  0  0  0  0  0  0  0  0  0  0
    1.2020    5.5910   20.8020 C   0  0  0  0  0  0  0  0  0  0  0  0
    0.3540    5.7090   20.1150 H   0  0  0  0  0  0  0  0  0  0  0  0
    0.7630    5.5220   21.8040 H   0  0  0  0  0  0  0  0  0  0  0  0
    2.8790    2.7250   19.5660 C   0  0  0  0  0  0  0  0  0  0  0  0
    2.2640    3.8530   19.2960 N   0  0  0  0  0  0  0  0  0  0  0  0
    1.9420    4.3180   20.5490 C   0  0  0  0  0  0  0  0  0  0  0  0
    2.3320    3.5210   21.5570 N   0  0  0  0  0  0  0  0  0  0  0  0
    2.9600    2.4590   20.9020 O   0  0  0  0  0  0  0  0  0  0  0  0
    3.4810    1.7380   18.6550 C   0  0  0  0  0  0  0  0  0  0  0  0
    2.8200    1.5430   17.8040 H   0  0  0  0  0  0  0  0  0  0  0  0
    4.4360    2.1070   18.2680 H   0  0  0  0  0  0  0  0  0  0  0  0
    3.6590    0.7910   19.1740 H   0  0  0  0  0  0  0  0  0  0  0  0
   -1.5710   12.4240   21.3250 C   0  0  0  0  0  0  0  0  0  0  0  0
   -1.1010   11.6720   22.4280 C   0  0  0  0  0  0  0  0  0  0  0  0
   -2.0310   11.4830   23.3680 N   0  0  0  0  0  0  0  0  0  0  0  0
   -3.1170   12.0830   22.8570 N   0  0  0  0  0  0  0  0  0  0  0  0
   -2.8900   12.6770   21.6510 C   0  0  0  0  0  0  0  0  0  0  0  0
   -0.1170   11.2530   22.5870 H   0  0  0  0  0  0  0  0  0  0  0  0
   -3.9830   12.0480   23.3860 H   0  0  0  0  0  0  0  0  0  0  0  0
   -3.6770   13.1960   21.1220 H   0  0  0  0  0  0  0  0  0  0  0  0
  1  3  1  0  0  0  0
  2  1  2  0  0  0  0
  3  8  1  0  0  0  0
  4  3  1  0  0  0  0
  4  5  1  0  0  0  0
  5  6  1  0  0  0  0
  5 11  1  0  0  0  0
  6 13  1  0  0  0  0
  7 15  1  0  0  0  0
  7  6  1  0  0  0  0
  8 17  1  6  0  0  0
  8  7  1  0  0  0  0
  8 41  1  0  0  0  0
  9  4  1  0  0  0  0
 10  4  1  0  0  0  0
 12  5  1  0  0  0  0
 14  6  1  0  0  0  0
 16  7  1  0  0  0  0
 18 23  1  0  0  0  0
 18 28  1  0  0  0  0
 19 18  2  0  0  0  0
 20 21  2  0  0  0  0
 20 19  1  0  0  0  0
 21 22  1  0  0  0  0
 22  1  1  0  0  0  0
 22 23  2  0  0  0  0
 23 27  1  0  0  0  0
 24 19  1  0  0  0  0
 25 20  1  0  0  0  0
 26 21  1  0  0  0  0
 29 28  1  0  0  0  0
 29 31  1  0  0  0  0
 30 29  1  0  0  0  0
 32 36  1  0  0  0  0
 33 32  2  0  0  0  0
 33 34  1  0  0  0  0
 34 29  1  0  0  0  0
 34 35  2  0  0  0  0
 36 35  1  0  0  0  0
 37 40  1  0  0  0  0
 37 32  1  0  0  0  0
 38 37  1  0  0  0  0
 39 37  1  0  0  0  0
 41 45  2  0  0  0  0
 41 42  1  0  0  0  0
 42 46  1  0  0  0  0
 42 43  2  0  0  0  0
 44 43  1  0  0  0  0
 44 47  1  0  0  0  0
 45 44  1  0  0  0  0
 48 45  1  0  0  0  0
M  END
>  <MODEL>
23

>  <REMARK>
 VINA RESULT:    -7.439      3.146      8.827
 INTER + INTRA:          -9.210
 INTER:                  -8.438
 INTRA:                  -0.773
 UNBOUND:                 0.621
  Name = 
  6 active torsions:
  status: ('A' for Active; 'I' for Inactive)
    1  A    between atoms: C_1  and  C_2
    2  A    between atoms: C_4  and  C_5
    3  A    between atoms: C_5  and  O_6
    4  A    between atoms: O_6  and  C_7
    5  A    between atoms: C_11  and  C_12
    6  A    between atoms: C_19  and  C_20
                            x       y       z     vdW  Elec       q    Type
                         _______ _______ _______ _____ _____    ______ ____

>  <TORSDO>
F 6

$$$$
=
 OpenBabel07192307433D

 48 51  0  0  1  0  0  0  0  0999 V2000
    1.0850    9.6450   20.3230 C   0  0  0  0  0  0  0  0  0  0  0  0
    1.5640   10.2270   21.2960 O   0  0  0  0  0  0  0  0  0  0  0  0
    0.1790   10.2290   19.4290 N   0  0  0  0  0  0  0  0  0  0  0  0
   -0.8140    9.4380   18.6970 C   0  0  0  0  0  0  0  0  0  0  0  0
   -1.2690   10.1350   17.4220 C   0  0  0  0  0  0  0  0  0  0  0  0
   -1.7760   11.5560   17.6650 C   0  0  0  0  0  0  0  0  0  0  0  0
   -1.4930   12.0640   19.0780 C   0  0  0  0  0  0  0  0  0  0  0  0
   -0.1130   11.6560   19.6180 C   0  0  2  0  0  0  0  0  0  0  0  0
   -1.6640    9.2800   19.3730 H   0  0  0  0  0  0  0  0  0  0  0  0
   -0.4340    8.4450   18.4490 H   0  0  0  0  0  0  0  0  0  0  0  0
   -0.4320   10.1690   16.7140 H   0  0  0  0  0  0  0  0  0  0  0  0
   -2.0530    9.5430   16.9350 H   0  0  0  0  0  0  0  0  0  0  0  0
   -1.3260   12.2300   16.9260 H   0  0  0  0  0  0  0  0  0  0  0  0
   -2.8570   11.5970   17.4860 H   0  0  0  0  0  0  0  0  0  0  0  0
   -1.6220   13.1540   19.1120 H   0  0  0  0  0  0  0  0  0  0  0  0
   -2.2590   11.6460   19.7450 H   0  0  0  0  0  0  0  0  0  0  0  0
   -0.1300   11.8530   20.6990 H   0  0  0  0  0  0  0  0  0  0  0  0
    2.5890    6.6170   18.6610 C   0  0  0  0  0  0  0  0  0  0  0  0
    2.2790    5.6210   19.5920 C   0  0  0  0  0  0  0  0  0  0  0  0
    1.5730    5.9360   20.7600 C   0  0  0  0  0  0  0  0  0  0  0  0
    1.1820    7.2510   21.0090 C   0  0  0  0  0  0  0  0  0  0  0  0
    1.5100    8.2490   20.0880 C   0  0  0  0  0  0  0  0  0  0  0  0
    2.1880    7.9320   18.9090 C   0  0  0  0  0  0  0  0  0  0  0  0
    2.5440    4.5810   19.4320 H   0  0  0  0  0  0  0  0  0  0  0  0
    1.3150    5.1500   21.4640 H   0  0  0  0  0  0  0  0  0  0  0  0
    0.6130    7.4920   21.9020 H   0  0  0  0  0  0  0  0  0  0  0  0
    2.3990    8.7100   18.1790 H   0  0  0  0  0  0  0  0  0  0  0  0
    3.2510    6.4400   17.4790 O   0  0  0  0  0  0  0  0  0  0  0  0
    4.3430    5.5090   17.4350 C   0  0  0  0  0  0  0  0  0  0  0  0
    4.3410    4.9490   16.4910 H   0  0  0  0  0  0  0  0  0  0  0  0
    4.1330    4.7700   18.2180 H   0  0  0  0  0  0  0  0  0  0  0  0
    7.2950    7.4330   17.8110 C   0  0  0  0  0  0  0  0  0  0  0  0
    6.0560    7.3740   17.3800 N   0  0  0  0  0  0  0  0  0  0  0  0
    5.6860    6.0950   17.7240 C   0  0  0  0  0  0  0  0  0  0  0  0
    6.6460    5.3840   18.3370 N   0  0  0  0  0  0  0  0  0  0  0  0
    7.7180    6.2770   18.3990 O   0  0  0  0  0  0  0  0  0  0  0  0
    8.2610    8.5420   17.7540 C   0  0  0  0  0  0  0  0  0  0  0  0
    7.7420    9.5050   17.7010 H   0  0  0  0  0  0  0  0  0  0  0  0
    8.8940    8.5440   18.6470 H   0  0  0  0  0  0  0  0  0  0  0  0
    8.9030    8.4510   16.8730 H   0  0  0  0  0  0  0  0  0  0  0  0
    1.0040   12.4720   19.0260 C   0  0  0  0  0  0  0  0  0  0  0  0
    1.2360   13.8660   19.1020 C   0  0  0  0  0  0  0  0  0  0  0  0
    2.3360   14.2500   18.4480 N   0  0  0  0  0  0  0  0  0  0  0  0
    2.7980   13.1080   17.9180 N   0  0  0  0  0  0  0  0  0  0  0  0
    2.0520   12.0160   18.2500 C   0  0  0  0  0  0  0  0  0  0  0  0
    0.6480   14.6200   19.6070 H   0  0  0  0  0  0  0  0  0  0  0  0
    3.6300   13.1460   17.3380 H   0  0  0  0  0  0  0  0  0  0  0  0
    2.3070   11.0290   17.8900 H   0  0  0  0  0  0  0  0  0  0  0  0
  1  2  2  0  0  0  0
  3  8  1  0  0  0  0
  3  1  1  0  0  0  0
  4  9  1  0  0  0  0
  4  3  1  0  0  0  0
  5  6  1  0  0  0  0
  5  4  1  0  0  0  0
  6  7  1  0  0  0  0
  7 15  1  0  0  0  0
  7  8  1  0  0  0  0
  7 16  1  0  0  0  0
  8 17  1  1  0  0  0
 10  4  1  0  0  0  0
 11  5  1  0  0  0  0
 12  5  1  0  0  0  0
 13  6  1  0  0  0  0
 14  6  1  0  0  0  0
 18 23  2  0  0  0  0
 18 19  1  0  0  0  0
 19 20  2  0  0  0  0
 20 21  1  0  0  0  0
 20 25  1  0  0  0  0
 21 26  1  0  0  0  0
 22  1  1  0  0  0  0
 22 21  2  0  0  0  0
 23 22  1  0  0  0  0
 24 19  1  0  0  0  0
 27 23  1  0  0  0  0
 28 18  1  0  0  0  0
 29 28  1  0  0  0  0
 29 34  1  0  0  0  0
 29 31  1  0  0  0  0
 30 29  1  0  0  0  0
 32 36  1  0  0  0  0
 33 34  1  0  0  0  0
 33 32  2  0  0  0  0
 34 35  2  0  0  0  0
 35 36  1  0  0  0  0
 37 32  1  0  0  0  0
 37 39  1  0  0  0  0
 38 37  1  0  0  0  0
 40 37  1  0  0  0  0
 41 42  1  0  0  0  0
 41  8  1  0  0  0  0
 42 46  1  0  0  0  0
 43 42  2  0  0  0  0
 44 45  1  0  0  0  0
 44 43  1  0  0  0  0
 45 41  2  0  0  0  0
 47 44  1  0  0  0  0
 48 45  1  0  0  0  0
M  END
>  <MODEL>
24

>  <REMARK>
 VINA RESULT:    -7.358      2.693      8.047
 INTER + INTRA:          -9.103
 INTER:                  -8.340
 INTRA:                  -0.763
 UNBOUND:                 0.621
  Name = 
  6 active torsions:
  status: ('A' for Active; 'I' for Inactive)
    1  A    between atoms: C_1  and  C_2
    2  A    between atoms: C_4  and  C_5
    3  A    between atoms: C_5  and  O_6
    4  A    between atoms: O_6  and  C_7
    5  A    between atoms: C_11  and  C_12
    6  A    between atoms: C_19  and  C_20
                            x       y       z     vdW  Elec       q    Type
                         _______ _______ _______ _____ _____    ______ ____

>  <TORSDO>
F 6

$$$$
=
 OpenBabel07192307433D

 48 51  0  0  1  0  0  0  0  0999 V2000
    2.7170    6.4830   19.5960 C   0  0  0  0  0  0  0  0  0  0  0  0
    2.3990    6.0040   20.6830 O   0  0  0  0  0  0  0  0  0  0  0  0
    3.6670    5.9160   18.7380 N   0  0  0  0  0  0  0  0  0  0  0  0
    4.4660    6.7250   17.8130 C   0  0  0  0  0  0  0  0  0  0  0  0
    4.9740    5.9070   16.6340 C   0  0  0  0  0  0  0  0  0  0  0  0
    5.7380    4.6540   17.0600 C   0  0  0  0  0  0  0  0  0  0  0  0
    5.6210    4.3550   18.5530 C   0  0  0  0  0  0  0  0  0  0  0  0
    4.2190    4.6120   19.1280 C   0  0  2  0  0  0  0  0  0  0  0  0
    5.3060    7.1370   18.3870 H   0  0  0  0  0  0  0  0  0  0  0  0
    3.9020    7.5840   17.4400 H   0  0  0  0  0  0  0  0  0  0  0  0
    4.1230    5.6130   16.0080 H   0  0  0  0  0  0  0  0  0  0  0  0
    5.6140    6.5310   15.9980 H   0  0  0  0  0  0  0  0  0  0  0  0
    5.3800    3.7980   16.4750 H   0  0  0  0  0  0  0  0  0  0  0  0
    6.7990    4.7660   16.8040 H   0  0  0  0  0  0  0  0  0  0  0  0
    5.9440    3.3250   18.7500 H   0  0  0  0  0  0  0  0  0  0  0  0
    6.3320    5.0040   19.0830 H   0  0  0  0  0  0  0  0  0  0  0  0
    4.3250    4.6080   20.2220 H   0  0  0  0  0  0  0  0  0  0  0  0
    1.0370    9.8510   19.7640 C   0  0  0  0  0  0  0  0  0  0  0  0
    0.7140   10.0550   18.4200 C   0  0  0  0  0  0  0  0  0  0  0  0
    1.0390    9.0900   17.4580 C   0  0  0  0  0  0  0  0  0  0  0  0
    1.6980    7.9210   17.8330 C   0  0  0  0  0  0  0  0  0  0  0  0
    2.0380    7.7270   19.1750 C   0  0  0  0  0  0  0  0  0  0  0  0
    1.6890    8.6740   20.1400 C   0  0  0  0  0  0  0  0  0  0  0  0
    0.1830   10.9390   18.0830 H   0  0  0  0  0  0  0  0  0  0  0  0
    0.7600    9.2470   16.4190 H   0  0  0  0  0  0  0  0  0  0  0  0
    1.9280    7.1610   17.0920 H   0  0  0  0  0  0  0  0  0  0  0  0
    1.9200    8.4910   21.1870 H   0  0  0  0  0  0  0  0  0  0  0  0
    0.7590   10.6980   20.8000 O   0  0  0  0  0  0  0  0  0  0  0  0
    0.3630   12.0450   20.4980 C   0  0  0  0  0  0  0  0  0  0  0  0
   -0.1940   12.4850   21.3350 H   0  0  0  0  0  0  0  0  0  0  0  0
   -0.3560   11.9640   19.6740 H   0  0  0  0  0  0  0  0  0  0  0  0
    2.6560   14.1780   18.8410 C   0  0  0  0  0  0  0  0  0  0  0  0
    1.5350   13.4980   18.7850 N   0  0  0  0  0  0  0  0  0  0  0  0
    1.4670   12.9420   20.0410 C   0  0  0  0  0  0  0  0  0  0  0  0
    2.4960   13.2560   20.8450 N   0  0  0  0  0  0  0  0  0  0  0  0
    3.2880   14.0830   20.0460 O   0  0  0  0  0  0  0  0  0  0  0  0
    3.3050   15.0110   17.8140 C   0  0  0  0  0  0  0  0  0  0  0  0
    4.2450   15.4270   18.1910 H   0  0  0  0  0  0  0  0  0  0  0  0
    3.5280   14.4160   16.9240 H   0  0  0  0  0  0  0  0  0  0  0  0
    2.6560   15.8420   17.5240 H   0  0  0  0  0  0  0  0  0  0  0  0
    3.2380    3.5300   18.7630 C   0  0  0  0  0  0  0  0  0  0  0  0
    2.5840    2.5920   19.5960 C   0  0  0  0  0  0  0  0  0  0  0  0
    1.7730    1.7710   18.9230 N   0  0  0  0  0  0  0  0  0  0  0  0
    1.9290    2.1540   17.6470 N   0  0  0  0  0  0  0  0  0  0  0  0
    2.7750    3.2130   17.5010 C   0  0  0  0  0  0  0  0  0  0  0  0
    2.6640    2.4710   20.6670 H   0  0  0  0  0  0  0  0  0  0  0  0
    1.4260    1.6480   16.9250 H   0  0  0  0  0  0  0  0  0  0  0  0
    2.9960    3.6260   16.5270 H   0  0  0  0  0  0  0  0  0  0  0  0
  1  2  2  0  0  0  0
  3  8  1  0  0  0  0
  3  1  1  0  0  0  0
  4  9  1  0  0  0  0
  4  3  1  0  0  0  0
  5  6  1  0  0  0  0
  5  4  1  0  0  0  0
  6  7  1  0  0  0  0
  7 15  1  0  0  0  0
  7 16  1  0  0  0  0
  7  8  1  0  0  0  0
  8 17  1  1  0  0  0
 10  4  1  0  0  0  0
 11  5  1  0  0  0  0
 12  5  1  0  0  0  0
 13  6  1  0  0  0  0
 14  6  1  0  0  0  0
 18 23  1  0  0  0  0
 18 28  1  0  0  0  0
 19 18  2  0  0  0  0
 20 21  2  0  0  0  0
 20 19  1  0  0  0  0
 21 22  1  0  0  0  0
 22  1  1  0  0  0  0
 22 23  2  0  0  0  0
 23 27  1  0  0  0  0
 24 19  1  0  0  0  0
 25 20  1  0  0  0  0
 26 21  1  0  0  0  0
 29 28  1  0  0  0  0
 29 30  1  0  0  0  0
 31 29  1  0  0  0  0
 32 36  1  0  0  0  0
 33 32  2  0  0  0  0
 33 34  1  0  0  0  0
 34 29  1  0  0  0  0
 34 35  2  0  0  0  0
 36 35  1  0  0  0  0
 37 38  1  0  0  0  0
 37 32  1  0  0  0  0
 39 37  1  0  0  0  0
 40 37  1  0  0  0  0
 41  8  1  0  0  0  0
 41 42  1  0  0  0  0
 42 46  1  0  0  0  0
 43 42  2  0  0  0  0
 44 43  1  0  0  0  0
 45 44  1  0  0  0  0
 45 41  2  0  0  0  0
 47 44  1  0  0  0  0
 48 45  1  0  0  0  0
M  END
>  <MODEL>
25

>  <REMARK>
 VINA RESULT:    -7.333      3.029      4.492
 INTER + INTRA:          -9.070
 INTER:                  -8.951
 INTRA:                  -0.119
 UNBOUND:                 0.621
  Name = 
  6 active torsions:
  status: ('A' for Active; 'I' for Inactive)
    1  A    between atoms: C_1  and  C_2
    2  A    between atoms: C_4  and  C_5
    3  A    between atoms: C_5  and  O_6
    4  A    between atoms: O_6  and  C_7
    5  A    between atoms: C_11  and  C_12
    6  A    between atoms: C_19  and  C_20
                            x       y       z     vdW  Elec       q    Type
                         _______ _______ _______ _____ _____    ______ ____

>  <TORSDO>
F 6

$$$$
=
 OpenBabel07192307433D

 48 51  0  0  1  0  0  0  0  0999 V2000
    2.0230    9.3060   18.4600 C   0  0  0  0  0  0  0  0  0  0  0  0
    2.3550   10.2420   17.7350 O   0  0  0  0  0  0  0  0  0  0  0  0
    1.1840    9.4380   19.5740 N   0  0  0  0  0  0  0  0  0  0  0  0
    1.2750    8.5420   20.7300 C   0  0  0  0  0  0  0  0  0  0  0  0
   -0.0300    8.4870   21.5120 C   0  0  0  0  0  0  0  0  0  0  0  0
   -0.5340    9.8680   21.9320 C   0  0  0  0  0  0  0  0  0  0  0  0
    0.2320   11.0150   21.2750 C   0  0  0  0  0  0  0  0  0  0  0  0
    0.5870   10.7600   19.8010 C   0  0  2  0  0  0  0  0  0  0  0  0
    2.0890    8.9140   21.3650 H   0  0  0  0  0  0  0  0  0  0  0  0
    1.5590    7.5290   20.4330 H   0  0  0  0  0  0  0  0  0  0  0  0
   -0.7960    7.9970   20.8990 H   0  0  0  0  0  0  0  0  0  0  0  0
    0.0960    7.8560   22.4000 H   0  0  0  0  0  0  0  0  0  0  0  0
   -1.6030    9.9470   21.6980 H   0  0  0  0  0  0  0  0  0  0  0  0
   -0.4590    9.9710   23.0210 H   0  0  0  0  0  0  0  0  0  0  0  0
   -0.3320   11.9490   21.3890 H   0  0  0  0  0  0  0  0  0  0  0  0
    1.1690   11.1560   21.8330 H   0  0  0  0  0  0  0  0  0  0  0  0
    1.3330   11.5170   19.5250 H   0  0  0  0  0  0  0  0  0  0  0  0
    2.1730    5.5740   17.9680 C   0  0  0  0  0  0  0  0  0  0  0  0
    3.4900    5.4160   17.5280 C   0  0  0  0  0  0  0  0  0  0  0  0
    4.3330    6.5280   17.3990 C   0  0  0  0  0  0  0  0  0  0  0  0
    3.8600    7.8040   17.6980 C   0  0  0  0  0  0  0  0  0  0  0  0
    2.5370    7.9630   18.1180 C   0  0  0  0  0  0  0  0  0  0  0  0
    1.7040    6.8530   18.2760 C   0  0  0  0  0  0  0  0  0  0  0  0
    3.9100    4.4410   17.3050 H   0  0  0  0  0  0  0  0  0  0  0  0
    5.3630    6.3910   17.0820 H   0  0  0  0  0  0  0  0  0  0  0  0
    4.5200    8.6640   17.6220 H   0  0  0  0  0  0  0  0  0  0  0  0
    0.6890    6.9850   18.6450 H   0  0  0  0  0  0  0  0  0  0  0  0
    1.2590    4.5760   18.1560 O   0  0  0  0  0  0  0  0  0  0  0  0
    1.7130    3.2140   18.1260 C   0  0  0  0  0  0  0  0  0  0  0  0
    2.2140    2.9910   17.1750 H   0  0  0  0  0  0  0  0  0  0  0  0
    0.8050    2.6000   18.1320 H   0  0  0  0  0  0  0  0  0  0  0  0
    4.0920    1.9850   20.4460 C   0  0  0  0  0  0  0  0  0  0  0  0
    3.7560    2.1580   19.1880 N   0  0  0  0  0  0  0  0  0  0  0  0
    2.5430    2.7970   19.2960 C   0  0  0  0  0  0  0  0  0  0  0  0
    2.1360    3.0130   20.5570 N   0  0  0  0  0  0  0  0  0  0  0  0
    3.1710    2.4740   21.3250 O   0  0  0  0  0  0  0  0  0  0  0  0
    5.2940    1.3590   21.0220 C   0  0  0  0  0  0  0  0  0  0  0  0
    5.4590    1.7080   22.0460 H   0  0  0  0  0  0  0  0  0  0  0  0
    5.1860    0.2710   21.0440 H   0  0  0  0  0  0  0  0  0  0  0  0
    6.1800    1.6080   20.4300 H   0  0  0  0  0  0  0  0  0  0  0  0
   -0.5950   10.9330   18.8860 C   0  0  0  0  0  0  0  0  0  0  0  0
   -1.4720    9.9570   18.3570 C   0  0  0  0  0  0  0  0  0  0  0  0
   -2.4200   10.4760   17.5710 N   0  0  0  0  0  0  0  0  0  0  0  0
   -2.1350   11.7870   17.5620 N   0  0  0  0  0  0  0  0  0  0  0  0
   -1.0700   12.1140   18.3470 C   0  0  0  0  0  0  0  0  0  0  0  0
   -1.4610    8.8870   18.5100 H   0  0  0  0  0  0  0  0  0  0  0  0
   -2.7100   12.4030   16.9970 H   0  0  0  0  0  0  0  0  0  0  0  0
   -0.7260   13.1350   18.4330 H   0  0  0  0  0  0  0  0  0  0  0  0
  1  3  1  0  0  0  0
  2  1  2  0  0  0  0
  3  8  1  0  0  0  0
  3  4  1  0  0  0  0
  4  9  1  0  0  0  0
  4  5  1  0  0  0  0
  5  6  1  0  0  0  0
  5 12  1  0  0  0  0
  6 14  1  0  0  0  0
  7 15  1  0  0  0  0
  7 16  1  0  0  0  0
  7  6  1  0  0  0  0
  8 17  1  6  0  0  0
  8  7  1  0  0  0  0
 10  4  1  0  0  0  0
 11  5  1  0  0  0  0
 13  6  1  0  0  0  0
 18 28  1  0  0  0  0
 18 23  1  0  0  0  0
 19 18  2  0  0  0  0
 20 19  1  0  0  0  0
 20 21  2  0  0  0  0
 21 22  1  0  0  0  0
 22 23  2  0  0  0  0
 22  1  1  0  0  0  0
 23 27  1  0  0  0  0
 24 19  1  0  0  0  0
 25 20  1  0  0  0  0
 26 21  1  0  0  0  0
 29 31  1  0  0  0  0
 29 28  1  0  0  0  0
 29 34  1  0  0  0  0
 30 29  1  0  0  0  0
 32 37  1  0  0  0  0
 32 36  1  0  0  0  0
 33 34  1  0  0  0  0
 33 32  2  0  0  0  0
 34 35  2  0  0  0  0
 35 36  1  0  0  0  0
 37 39  1  0  0  0  0
 37 38  1  0  0  0  0
 40 37  1  0  0  0  0
 41  8  1  0  0  0  0
 42 46  1  0  0  0  0
 42 41  1  0  0  0  0
 43 42  2  0  0  0  0
 44 43  1  0  0  0  0
 44 45  1  0  0  0  0
 45 48  1  0  0  0  0
 45 41  2  0  0  0  0
 47 44  1  0  0  0  0
M  END
>  <MODEL>
26

>  <REMARK>
 VINA RESULT:    -7.312      2.570      8.223
 INTER + INTRA:          -9.043
 INTER:                  -8.704
 INTRA:                  -0.339
 UNBOUND:                 0.621
  Name = 
  6 active torsions:
  status: ('A' for Active; 'I' for Inactive)
    1  A    between atoms: C_1  and  C_2
    2  A    between atoms: C_4  and  C_5
    3  A    between atoms: C_5  and  O_6
    4  A    between atoms: O_6  and  C_7
    5  A    between atoms: C_11  and  C_12
    6  A    between atoms: C_19  and  C_20
                            x       y       z     vdW  Elec       q    Type
                         _______ _______ _______ _____ _____    ______ ____

>  <TORSDO>
F 6

$$$$
=
 OpenBabel07192307433D

 48 51  0  0  1  0  0  0  0  0999 V2000
    2.0800    7.2130   19.9160 C   0  0  0  0  0  0  0  0  0  0  0  0
    1.7160    6.7240   20.9840 O   0  0  0  0  0  0  0  0  0  0  0  0
    3.0040    6.6100   19.0530 N   0  0  0  0  0  0  0  0  0  0  0  0
    3.8660    7.3930   18.1630 C   0  0  0  0  0  0  0  0  0  0  0  0
    4.3380    6.5780   16.9660 C   0  0  0  0  0  0  0  0  0  0  0  0
    5.0140    5.2670   17.3650 C   0  0  0  0  0  0  0  0  0  0  0  0
    4.8560    4.9320   18.8470 C   0  0  0  0  0  0  0  0  0  0  0  0
    3.4650    5.2630   19.4120 C   0  0  2  0  0  0  0  0  0  0  0  0
    4.7230    7.7330   18.7590 H   0  0  0  0  0  0  0  0  0  0  0  0
    3.3640    8.2960   17.8090 H   0  0  0  0  0  0  0  0  0  0  0  0
    3.4790    6.3580   16.3210 H   0  0  0  0  0  0  0  0  0  0  0  0
    5.0260    7.1770   16.3580 H   0  0  0  0  0  0  0  0  0  0  0  0
    4.6100    4.4530   16.7500 H   0  0  0  0  0  0  0  0  0  0  0  0
    6.0830    5.3170   17.1260 H   0  0  0  0  0  0  0  0  0  0  0  0
    5.1090    3.8780   19.0170 H   0  0  0  0  0  0  0  0  0  0  0  0
    5.5990    5.5180   19.4050 H   0  0  0  0  0  0  0  0  0  0  0  0
    3.5550    5.2200   20.5060 H   0  0  0  0  0  0  0  0  0  0  0  0
    0.6100   10.6730   20.1640 C   0  0  0  0  0  0  0  0  0  0  0  0
    0.3280   10.9390   18.8210 C   0  0  0  0  0  0  0  0  0  0  0  0
    0.6100    9.9870   17.8340 C   0  0  0  0  0  0  0  0  0  0  0  0
    1.1880    8.7670   18.1830 C   0  0  0  0  0  0  0  0  0  0  0  0
    1.4880    8.5090   19.5230 C   0  0  0  0  0  0  0  0  0  0  0  0
    1.1790    9.4460   20.5120 C   0  0  0  0  0  0  0  0  0  0  0  0
   -0.1410   11.8650   18.5040 H   0  0  0  0  0  0  0  0  0  0  0  0
    0.3630   10.1930   16.7960 H   0  0  0  0  0  0  0  0  0  0  0  0
    1.3850    8.0170   17.4210 H   0  0  0  0  0  0  0  0  0  0  0  0
    1.3780    9.2160   21.5570 H   0  0  0  0  0  0  0  0  0  0  0  0
    0.3650   11.5030   21.2210 O   0  0  0  0  0  0  0  0  0  0  0  0
   -0.5080   11.0460   22.2650 C   0  0  0  0  0  0  0  0  0  0  0  0
    0.0210   11.0050   23.2260 H   0  0  0  0  0  0  0  0  0  0  0  0
   -0.7480   10.0060   22.0160 H   0  0  0  0  0  0  0  0  0  0  0  0
   -3.5950   12.5480   23.1430 C   0  0  0  0  0  0  0  0  0  0  0  0
   -2.5830   11.7960   23.5100 N   0  0  0  0  0  0  0  0  0  0  0  0
   -1.8000   11.7880   22.3800 C   0  0  0  0  0  0  0  0  0  0  0  0
   -2.2970   12.4960   21.3530 N   0  0  0  0  0  0  0  0  0  0  0  0
   -3.4930   13.0060   21.8630 O   0  0  0  0  0  0  0  0  0  0  0  0
   -4.7880   12.9580   23.9030 C   0  0  0  0  0  0  0  0  0  0  0  0
   -4.9080   14.0460   23.8760 H   0  0  0  0  0  0  0  0  0  0  0  0
   -5.6880   12.5040   23.4760 H   0  0  0  0  0  0  0  0  0  0  0  0
   -4.7050   12.6490   24.9490 H   0  0  0  0  0  0  0  0  0  0  0  0
    2.4220    4.2580   19.0020 C   0  0  0  0  0  0  0  0  0  0  0  0
    1.9100    3.1510   19.7200 C   0  0  0  0  0  0  0  0  0  0  0  0
    0.9840    2.4690   19.0400 N   0  0  0  0  0  0  0  0  0  0  0  0
    0.9230    3.1130   17.8650 N   0  0  0  0  0  0  0  0  0  0  0  0
    1.7440    4.2000   17.8000 C   0  0  0  0  0  0  0  0  0  0  0  0
    2.1730    2.8120   20.7120 H   0  0  0  0  0  0  0  0  0  0  0  0
    0.2960    2.7570   17.1500 H   0  0  0  0  0  0  0  0  0  0  0  0
    1.7990    4.8120   16.9110 H   0  0  0  0  0  0  0  0  0  0  0  0
  1  2  2  0  0  0  0
  3  8  1  0  0  0  0
  3  1  1  0  0  0  0
  4  9  1  0  0  0  0
  4  3  1  0  0  0  0
  5  6  1  0  0  0  0
  5  4  1  0  0  0  0
  6  7  1  0  0  0  0
  7 15  1  0  0  0  0
  7 16  1  0  0  0  0
  7  8  1  0  0  0  0
  8 17  1  1  0  0  0
 10  4  1  0  0  0  0
 11  5  1  0  0  0  0
 12  5  1  0  0  0  0
 13  6  1  0  0  0  0
 14  6  1  0  0  0  0
 18 23  1  0  0  0  0
 18 28  1  0  0  0  0
 19 18  2  0  0  0  0
 20 21  2  0  0  0  0
 20 19  1  0  0  0  0
 21 22  1  0  0  0  0
 22  1  1  0  0  0  0
 22 23  2  0  0  0  0
 23 27  1  0  0  0  0
 24 19  1  0  0  0  0
 25 20  1  0  0  0  0
 26 21  1  0  0  0  0
 28 29  1  0  0  0  0
 29 34  1  0  0  0  0
 29 30  1  0  0  0  0
 31 29  1  0  0  0  0
 32 33  2  0  0  0  0
 32 37  1  0  0  0  0
 34 33  1  0  0  0  0
 35 36  1  0  0  0  0
 35 34  2  0  0  0  0
 36 32  1  0  0  0  0
 37 40  1  0  0  0  0
 38 37  1  0  0  0  0
 39 37  1  0  0  0  0
 41  8  1  0  0  0  0
 41 42  1  0  0  0  0
 42 46  1  0  0  0  0
 43 42  2  0  0  0  0
 44 43  1  0  0  0  0
 45 44  1  0  0  0  0
 45 41  2  0  0  0  0
 47 44  1  0  0  0  0
 48 45  1  0  0  0  0
M  END
>  <MODEL>
27

>  <REMARK>
 VINA RESULT:    -7.310      2.923      4.540
 INTER + INTRA:          -9.040
 INTER:                  -8.734
 INTRA:                  -0.306
 UNBOUND:                 0.621
  Name = 
  6 active torsions:
  status: ('A' for Active; 'I' for Inactive)
    1  A    between atoms: C_1  and  C_2
    2  A    between atoms: C_4  and  C_5
    3  A    between atoms: C_5  and  O_6
    4  A    between atoms: O_6  and  C_7
    5  A    between atoms: C_11  and  C_12
    6  A    between atoms: C_19  and  C_20
                            x       y       z     vdW  Elec       q    Type
                         _______ _______ _______ _____ _____    ______ ____

>  <TORSDO>
F 6

$$$$
=
 OpenBabel07192307433D

 48 51  0  0  1  0  0  0  0  0999 V2000
    0.7110   10.1310   20.4970 C   0  0  0  0  0  0  0  0  0  0  0  0
    1.1270   10.7500   21.4750 O   0  0  0  0  0  0  0  0  0  0  0  0
   -0.2310   10.6380   19.5930 N   0  0  0  0  0  0  0  0  0  0  0  0
   -1.1440    9.7660   18.8490 C   0  0  0  0  0  0  0  0  0  0  0  0
   -1.6420   10.4240   17.5690 C   0  0  0  0  0  0  0  0  0  0  0  0
   -2.2720   11.7960   17.8080 C   0  0  0  0  0  0  0  0  0  0  0  0
   -2.0490   12.3240   19.2240 C   0  0  0  0  0  0  0  0  0  0  0  0
   -0.6460   12.0340   19.7800 C   0  0  2  0  0  0  0  0  0  0  0  0
   -1.9850    9.5350   19.5150 H   0  0  0  0  0  0  0  0  0  0  0  0
   -0.6780    8.8090   18.6040 H   0  0  0  0  0  0  0  0  0  0  0  0
   -0.8030   10.5310   16.8700 H   0  0  0  0  0  0  0  0  0  0  0  0
   -2.3670    9.7680   17.0730 H   0  0  0  0  0  0  0  0  0  0  0  0
   -1.8720   12.5080   17.0740 H   0  0  0  0  0  0  0  0  0  0  0  0
   -3.3500   11.7450   17.6160 H   0  0  0  0  0  0  0  0  0  0  0  0
   -2.2710   13.3980   19.2570 H   0  0  0  0  0  0  0  0  0  0  0  0
   -2.7850   11.8410   19.8820 H   0  0  0  0  0  0  0  0  0  0  0  0
   -0.6930   12.2270   20.8600 H   0  0  0  0  0  0  0  0  0  0  0  0
    2.4760    7.2420   18.8450 C   0  0  0  0  0  0  0  0  0  0  0  0
    2.2530    6.2250   19.7770 C   0  0  0  0  0  0  0  0  0  0  0  0
    1.5190    6.4800   20.9420 C   0  0  0  0  0  0  0  0  0  0  0  0
    1.0150    7.7560   21.1880 C   0  0  0  0  0  0  0  0  0  0  0  0
    1.2570    8.7770   20.2650 C   0  0  0  0  0  0  0  0  0  0  0  0
    1.9620    8.5180   19.0880 C   0  0  0  0  0  0  0  0  0  0  0  0
    2.6070    5.2110   19.6190 H   0  0  0  0  0  0  0  0  0  0  0  0
    1.3290    5.6760   21.6480 H   0  0  0  0  0  0  0  0  0  0  0  0
    0.4250    7.9480   22.0800 H   0  0  0  0  0  0  0  0  0  0  0  0
    2.1060    9.3110   18.3570 H   0  0  0  0  0  0  0  0  0  0  0  0
    3.1530    7.1220   17.6640 O   0  0  0  0  0  0  0  0  0  0  0  0
    4.4470    6.4990   17.6740 C   0  0  0  0  0  0  0  0  0  0  0  0
    5.1640    7.0980   18.2530 H   0  0  0  0  0  0  0  0  0  0  0  0
    4.8020    6.5360   16.6370 H   0  0  0  0  0  0  0  0  0  0  0  0
    4.0150    3.0240   18.2140 C   0  0  0  0  0  0  0  0  0  0  0  0
    3.6880    4.0880   17.5170 N   0  0  0  0  0  0  0  0  0  0  0  0
    4.4580    5.0670   18.1000 C   0  0  0  0  0  0  0  0  0  0  0  0
    5.2270    4.6420   19.1150 N   0  0  0  0  0  0  0  0  0  0  0  0
    4.9350    3.2780   19.1900 O   0  0  0  0  0  0  0  0  0  0  0  0
    3.5440    1.6350   18.0900 C   0  0  0  0  0  0  0  0  0  0  0  0
    4.2500    0.9430   18.5610 H   0  0  0  0  0  0  0  0  0  0  0  0
    2.5720    1.5160   18.5780 H   0  0  0  0  0  0  0  0  0  0  0  0
    3.4420    1.3540   17.0370 H   0  0  0  0  0  0  0  0  0  0  0  0
    0.4040   12.9440   19.2010 C   0  0  0  0  0  0  0  0  0  0  0  0
    1.5520   12.6210   18.4400 C   0  0  0  0  0  0  0  0  0  0  0  0
    2.2670   13.6940   18.0900 N   0  0  0  0  0  0  0  0  0  0  0  0
    1.6000   14.7110   18.6560 N   0  0  0  0  0  0  0  0  0  0  0  0
    0.4710   14.3190   19.3110 C   0  0  0  0  0  0  0  0  0  0  0  0
    1.9000   11.6470   18.1250 H   0  0  0  0  0  0  0  0  0  0  0  0
    1.9730   15.6500   18.5550 H   0  0  0  0  0  0  0  0  0  0  0  0
   -0.1640   15.0340   19.8170 H   0  0  0  0  0  0  0  0  0  0  0  0
  1  2  2  0  0  0  0
  3  8  1  0  0  0  0
  3  1  1  0  0  0  0
  4  9  1  0  0  0  0
  4  3  1  0  0  0  0
  5  6  1  0  0  0  0
  5  4  1  0  0  0  0
  6  7  1  0  0  0  0
  7 15  1  0  0  0  0
  7  8  1  0  0  0  0
  7 16  1  0  0  0  0
  8 17  1  1  0  0  0
 10  4  1  0  0  0  0
 11  5  1  0  0  0  0
 12  5  1  0  0  0  0
 13  6  1  0  0  0  0
 14  6  1  0  0  0  0
 18 23  2  0  0  0  0
 18 19  1  0  0  0  0
 19 20  2  0  0  0  0
 20 21  1  0  0  0  0
 20 25  1  0  0  0  0
 21 26  1  0  0  0  0
 22  1  1  0  0  0  0
 22 21  2  0  0  0  0
 23 22  1  0  0  0  0
 24 19  1  0  0  0  0
 27 23  1  0  0  0  0
 28 29  1  0  0  0  0
 28 18  1  0  0  0  0
 29 34  1  0  0  0  0
 29 30  1  0  0  0  0
 31 29  1  0  0  0  0
 32 36  1  0  0  0  0
 33 34  1  0  0  0  0
 33 32  2  0  0  0  0
 34 35  2  0  0  0  0
 35 36  1  0  0  0  0
 37 32  1  0  0  0  0
 37 38  1  0  0  0  0
 37 39  1  0  0  0  0
 40 37  1  0  0  0  0
 41 45  2  0  0  0  0
 41  8  1  0  0  0  0
 42 41  1  0  0  0  0
 43 42  2  0  0  0  0
 43 44  1  0  0  0  0
 44 45  1  0  0  0  0
 45 48  1  0  0  0  0
 46 42  1  0  0  0  0
 47 44  1  0  0  0  0
M  END
>  <MODEL>
28

>  <REMARK>
 VINA RESULT:    -7.175      2.508      8.136
 INTER + INTRA:          -8.861
 INTER:                  -8.758
 INTRA:                  -0.103
 UNBOUND:                 0.621
  Name = 
  6 active torsions:
  status: ('A' for Active; 'I' for Inactive)
    1  A    between atoms: C_1  and  C_2
    2  A    between atoms: C_4  and  C_5
    3  A    between atoms: C_5  and  O_6
    4  A    between atoms: O_6  and  C_7
    5  A    between atoms: C_11  and  C_12
    6  A    between atoms: C_19  and  C_20
                            x       y       z     vdW  Elec       q    Type
                         _______ _______ _______ _____ _____    ______ ____

>  <TORSDO>
F 6

$$$$
=
 OpenBabel07192307433D

 48 51  0  0  1  0  0  0  0  0999 V2000
    0.1590   10.4060   21.1960 C   0  0  0  0  0  0  0  0  0  0  0  0
    0.5600   10.2840   22.3530 O   0  0  0  0  0  0  0  0  0  0  0  0
   -0.9290   11.2070   20.8250 N   0  0  0  0  0  0  0  0  0  0  0  0
   -1.7590   10.9020   19.6570 C   0  0  0  0  0  0  0  0  0  0  0  0
   -2.4670   12.1400   19.1230 C   0  0  0  0  0  0  0  0  0  0  0  0
   -3.2780   12.8720   20.1910 C   0  0  0  0  0  0  0  0  0  0  0  0
   -3.0130   12.3610   21.6060 C   0  0  0  0  0  0  0  0  0  0  0  0
   -1.5370   12.0290   21.8790 C   0  0  2  0  0  0  0  0  0  0  0  0
   -2.4900   10.1450   19.9680 H   0  0  0  0  0  0  0  0  0  0  0  0
   -1.1730   10.4480   18.8540 H   0  0  0  0  0  0  0  0  0  0  0  0
   -1.7220   12.8270   18.7040 H   0  0  0  0  0  0  0  0  0  0  0  0
   -3.1230   11.8620   18.2890 H   0  0  0  0  0  0  0  0  0  0  0  0
   -3.0620   13.9460   20.1330 H   0  0  0  0  0  0  0  0  0  0  0  0
   -4.3480   12.7720   19.9740 H   0  0  0  0  0  0  0  0  0  0  0  0
   -3.3960   13.0830   22.3380 H   0  0  0  0  0  0  0  0  0  0  0  0
   -3.6020   11.4430   21.7470 H   0  0  0  0  0  0  0  0  0  0  0  0
   -1.5160   11.4470   22.8110 H   0  0  0  0  0  0  0  0  0  0  0  0
    2.1560    7.7200   19.4670 C   0  0  0  0  0  0  0  0  0  0  0  0
    2.3010    8.2760   18.1930 C   0  0  0  0  0  0  0  0  0  0  0  0
    1.7540    9.5310   17.8990 C   0  0  0  0  0  0  0  0  0  0  0  0
    1.0470   10.2330   18.8740 C   0  0  0  0  0  0  0  0  0  0  0  0
    0.8850    9.6670   20.1420 C   0  0  0  0  0  0  0  0  0  0  0  0
    1.4560    8.4300   20.4460 C   0  0  0  0  0  0  0  0  0  0  0  0
    2.8610    7.7770   17.4080 H   0  0  0  0  0  0  0  0  0  0  0  0
    1.8950    9.9650   16.9130 H   0  0  0  0  0  0  0  0  0  0  0  0
    0.6430   11.2170   18.6550 H   0  0  0  0  0  0  0  0  0  0  0  0
    1.3600    8.0200   21.4490 H   0  0  0  0  0  0  0  0  0  0  0  0
    2.6570    6.5210   19.8870 O   0  0  0  0  0  0  0  0  0  0  0  0
    1.7620    5.5790   20.5000 C   0  0  0  0  0  0  0  0  0  0  0  0
    0.7160    5.8670   20.3300 H   0  0  0  0  0  0  0  0  0  0  0  0
    1.9230    5.6770   21.5800 H   0  0  0  0  0  0  0  0  0  0  0  0
    2.7900    2.4330   19.2350 C   0  0  0  0  0  0  0  0  0  0  0  0
    2.9530    3.7360   19.2340 N   0  0  0  0  0  0  0  0  0  0  0  0
    2.0040    4.1500   20.1390 C   0  0  0  0  0  0  0  0  0  0  0  0
    1.2790    3.1570   20.6800 N   0  0  0  0  0  0  0  0  0  0  0  0
    1.8050    2.0110   20.0790 O   0  0  0  0  0  0  0  0  0  0  0  0
    3.5070    1.3940   18.4770 C   0  0  0  0  0  0  0  0  0  0  0  0
    3.8380    1.7810   17.5080 H   0  0  0  0  0  0  0  0  0  0  0  0
    4.3890    1.0560   19.0300 H   0  0  0  0  0  0  0  0  0  0  0  0
    2.8580    0.5310   18.2960 H   0  0  0  0  0  0  0  0  0  0  0  0
   -0.6990   13.2600   22.0920 C   0  0  0  0  0  0  0  0  0  0  0  0
    0.4190   13.7230   21.3600 C   0  0  0  0  0  0  0  0  0  0  0  0
    0.9210   14.8660   21.8380 N   0  0  0  0  0  0  0  0  0  0  0  0
    0.1490   15.1240   22.9040 N   0  0  0  0  0  0  0  0  0  0  0  0
   -0.8450   14.2090   23.0860 C   0  0  0  0  0  0  0  0  0  0  0  0
    0.8920   13.2760   20.4960 H   0  0  0  0  0  0  0  0  0  0  0  0
    0.3570   15.9450   23.4640 H   0  0  0  0  0  0  0  0  0  0  0  0
   -1.5420   14.2900   23.9090 H   0  0  0  0  0  0  0  0  0  0  0  0
  1  2  2  0  0  0  0
  3  1  1  0  0  0  0
  3  8  1  0  0  0  0
  4  9  1  0  0  0  0
  4  3  1  0  0  0  0
  5  4  1  0  0  0  0
  5  6  1  0  0  0  0
  6  7  1  0  0  0  0
  7 16  1  0  0  0  0
  7  8  1  0  0  0  0
  7 15  1  0  0  0  0
  8 41  1  0  0  0  0
  8 17  1  1  0  0  0
 10  4  1  0  0  0  0
 11  5  1  0  0  0  0
 12  5  1  0  0  0  0
 13  6  1  0  0  0  0
 14  6  1  0  0  0  0
 18 28  1  0  0  0  0
 18 23  1  0  0  0  0
 19 18  2  0  0  0  0
 20 19  1  0  0  0  0
 20 21  2  0  0  0  0
 21 22  1  0  0  0  0
 22 23  2  0  0  0  0
 22  1  1  0  0  0  0
 23 27  1  0  0  0  0
 24 19  1  0  0  0  0
 25 20  1  0  0  0  0
 26 21  1  0  0  0  0
 28 29  1  0  0  0  0
 29 31  1  0  0  0  0
 30 29  1  0  0  0  0
 32 36  1  0  0  0  0
 33 32  2  0  0  0  0
 33 34  1  0  0  0  0
 34 29  1  0  0  0  0
 34 35  2  0  0  0  0
 36 35  1  0  0  0  0
 37 39  1  0  0  0  0
 37 32  1  0  0  0  0
 38 37  1  0  0  0  0
 40 37  1  0  0  0  0
 41 45  2  0  0  0  0
 42 43  2  0  0  0  0
 42 41  1  0  0  0  0
 43 44  1  0  0  0  0
 44 45  1  0  0  0  0
 44 47  1  0  0  0  0
 45 48  1  0  0  0  0
 46 42  1  0  0  0  0
M  END
>  <MODEL>
29

>  <REMARK>
 VINA RESULT:    -7.073      3.351      8.856
 INTER + INTRA:          -8.727
 INTER:                  -8.529
 INTRA:                  -0.198
 UNBOUND:                 0.621
  Name = 
  6 active torsions:
  status: ('A' for Active; 'I' for Inactive)
    1  A    between atoms: C_1  and  C_2
    2  A    between atoms: C_4  and  C_5
    3  A    between atoms: C_5  and  O_6
    4  A    between atoms: O_6  and  C_7
    5  A    between atoms: C_11  and  C_12
    6  A    between atoms: C_19  and  C_20
                            x       y       z     vdW  Elec       q    Type
                         _______ _______ _______ _____ _____    ______ ____

>  <TORSDO>
F 6

$$$$
=
 OpenBabel07192307433D

 48 51  0  0  1  0  0  0  0  0999 V2000
    3.6160    5.5660   17.8600 C   0  0  0  0  0  0  0  0  0  0  0  0
    2.9270    4.6430   17.4290 O   0  0  0  0  0  0  0  0  0  0  0  0
    5.0120    5.5220   17.9600 N   0  0  0  0  0  0  0  0  0  0  0  0
    5.7470    6.2850   18.9730 C   0  0  0  0  0  0  0  0  0  0  0  0
    7.1880    6.5440   18.5560 C   0  0  0  0  0  0  0  0  0  0  0  0
    7.9410    5.2680   18.1820 C   0  0  0  0  0  0  0  0  0  0  0  0
    7.0350    4.0440   18.0670 C   0  0  0  0  0  0  0  0  0  0  0  0
    5.6790    4.3370   17.4040 C   0  0  2  0  0  0  0  0  0  0  0  0
    5.7140    5.7030   19.9030 H   0  0  0  0  0  0  0  0  0  0  0  0
    5.2580    7.2370   19.1920 H   0  0  0  0  0  0  0  0  0  0  0  0
    7.1960    7.2290   17.6990 H   0  0  0  0  0  0  0  0  0  0  0  0
    7.7190    7.0630   19.3620 H   0  0  0  0  0  0  0  0  0  0  0  0
    8.4770    5.4290   17.2390 H   0  0  0  0  0  0  0  0  0  0  0  0
    8.7150    5.0650   18.9330 H   0  0  0  0  0  0  0  0  0  0  0  0
    7.5640    3.2400   17.5400 H   0  0  0  0  0  0  0  0  0  0  0  0
    6.8450    3.6690   19.0820 H   0  0  0  0  0  0  0  0  0  0  0  0
    5.0390    3.4670   17.6060 H   0  0  0  0  0  0  0  0  0  0  0  0
    1.6600    8.0010   19.9680 C   0  0  0  0  0  0  0  0  0  0  0  0
    1.5490    9.0830   19.0900 C   0  0  0  0  0  0  0  0  0  0  0  0
    2.1060    9.0160   17.8070 C   0  0  0  0  0  0  0  0  0  0  0  0
    2.7880    7.8710   17.3980 C   0  0  0  0  0  0  0  0  0  0  0  0
    2.9160    6.7980   18.2830 C   0  0  0  0  0  0  0  0  0  0  0  0
    2.3350    6.8510   19.5520 C   0  0  0  0  0  0  0  0  0  0  0  0
    1.0090    9.9860   19.3560 H   0  0  0  0  0  0  0  0  0  0  0  0
    1.9910    9.8530   17.1230 H   0  0  0  0  0  0  0  0  0  0  0  0
    3.1990    7.8090   16.3940 H   0  0  0  0  0  0  0  0  0  0  0  0
    2.4050    5.9920   20.2160 H   0  0  0  0  0  0  0  0  0  0  0  0
    1.1470    7.9300   21.2320 O   0  0  0  0  0  0  0  0  0  0  0  0
    1.4350    8.9940   22.1520 C   0  0  0  0  0  0  0  0  0  0  0  0
    2.3390    9.5380   21.8470 H   0  0  0  0  0  0  0  0  0  0  0  0
    1.6910    8.5040   23.0990 H   0  0  0  0  0  0  0  0  0  0  0  0
   -1.0070   11.5560   22.3010 C   0  0  0  0  0  0  0  0  0  0  0  0
    0.0620   11.0750   21.7090 N   0  0  0  0  0  0  0  0  0  0  0  0
    0.2980    9.9230   22.4220 C   0  0  0  0  0  0  0  0  0  0  0  0
   -0.5770    9.6930   23.4140 N   0  0  0  0  0  0  0  0  0  0  0  0
   -1.4500   10.7800   23.3320 O   0  0  0  0  0  0  0  0  0  0  0  0
   -1.7750   12.7780   22.0120 C   0  0  0  0  0  0  0  0  0  0  0  0
   -1.1040   13.6170   21.8020 H   0  0  0  0  0  0  0  0  0  0  0  0
   -2.4170   12.6280   21.1380 H   0  0  0  0  0  0  0  0  0  0  0  0
   -2.4060   13.0490   22.8640 H   0  0  0  0  0  0  0  0  0  0  0  0
    5.7870    4.4850   15.9110 C   0  0  0  0  0  0  0  0  0  0  0  0
    6.0320    3.4990   14.9260 C   0  0  0  0  0  0  0  0  0  0  0  0
    6.0620    3.9950   13.6850 N   0  0  0  0  0  0  0  0  0  0  0  0
    5.8730    5.3100   13.8700 N   0  0  0  0  0  0  0  0  0  0  0  0
    5.6820    5.6500   15.1760 C   0  0  0  0  0  0  0  0  0  0  0  0
    6.1900    2.4380   15.0590 H   0  0  0  0  0  0  0  0  0  0  0  0
    5.8850    5.9190   13.0580 H   0  0  0  0  0  0  0  0  0  0  0  0
    5.5200    6.6770   15.4720 H   0  0  0  0  0  0  0  0  0  0  0  0
  1  3  1  0  0  0  0
  1 22  1  0  0  0  0
  2  1  2  0  0  0  0
  3  4  1  0  0  0  0
  4 10  1  0  0  0  0
  4  9  1  0  0  0  0
  5  4  1  0  0  0  0
  5 12  1  0  0  0  0
  6  5  1  0  0  0  0
  6 14  1  0  0  0  0
  7  6  1  0  0  0  0
  7 16  1  0  0  0  0
  8 17  1  1  0  0  0
  8  3  1  0  0  0  0
  8  7  1  0  0  0  0
 11  5  1  0  0  0  0
 13  6  1  0  0  0  0
 15  7  1  0  0  0  0
 18 28  1  0  0  0  0
 19 24  1  0  0  0  0
 19 18  2  0  0  0  0
 20 19  1  0  0  0  0
 21 20  2  0  0  0  0
 21 22  1  0  0  0  0
 22 23  2  0  0  0  0
 23 18  1  0  0  0  0
 23 27  1  0  0  0  0
 25 20  1  0  0  0  0
 26 21  1  0  0  0  0
 28 29  1  0  0  0  0
 29 34  1  0  0  0  0
 29 31  1  0  0  0  0
 30 29  1  0  0  0  0
 32 36  1  0  0  0  0
 33 32  2  0  0  0  0
 33 34  1  0  0  0  0
 34 35  2  0  0  0  0
 36 35  1  0  0  0  0
 37 32  1  0  0  0  0
 37 40  1  0  0  0  0
 38 37  1  0  0  0  0
 39 37  1  0  0  0  0
 41  8  1  0  0  0  0
 42 46  1  0  0  0  0
 42 41  1  0  0  0  0
 43 44  1  0  0  0  0
 43 42  2  0  0  0  0
 44 45  1  0  0  0  0
 45 48  1  0  0  0  0
 45 41  2  0  0  0  0
 47 44  1  0  0  0  0
M  END
>  <MODEL>
30

>  <REMARK>
 VINA RESULT:    -7.038      3.296      4.471
 INTER + INTRA:          -8.680
 INTER:                  -7.969
 INTRA:                  -0.711
 UNBOUND:                 0.621
  Name = 
  6 active torsions:
  status: ('A' for Active; 'I' for Inactive)
    1  A    between atoms: C_1  and  C_2
    2  A    between atoms: C_4  and  C_5
    3  A    between atoms: C_5  and  O_6
    4  A    between atoms: O_6  and  C_7
    5  A    between atoms: C_11  and  C_12
    6  A    between atoms: C_19  and  C_20
                            x       y       z     vdW  Elec       q    Type
                         _______ _______ _______ _____ _____    ______ ____

>  <TORSDO>
F 6

$$$$
=
 OpenBabel07192307433D

 48 51  0  0  1  0  0  0  0  0999 V2000
    0.6180   10.6560   19.5830 C   0  0  0  0  0  0  0  0  0  0  0  0
    0.8150   11.3180   18.5650 O   0  0  0  0  0  0  0  0  0  0  0  0
   -0.1380   11.1030   20.6730 N   0  0  0  0  0  0  0  0  0  0  0  0
    0.1160   10.6420   22.0410 C   0  0  0  0  0  0  0  0  0  0  0  0
   -1.1140   10.7810   22.9270 C   0  0  0  0  0  0  0  0  0  0  0  0
   -1.6920   12.1960   22.9290 C   0  0  0  0  0  0  0  0  0  0  0  0
   -1.0760   13.1010   21.8640 C   0  0  0  0  0  0  0  0  0  0  0  0
   -0.8200   12.3950   20.5220 C   0  0  2  0  0  0  0  0  0  0  0  0
    0.9460   11.2420   22.4360 H   0  0  0  0  0  0  0  0  0  0  0  0
    0.4570    9.6030   22.0580 H   0  0  0  0  0  0  0  0  0  0  0  0
   -1.8840   10.0790   22.5850 H   0  0  0  0  0  0  0  0  0  0  0  0
   -0.8680   10.4830   23.9530 H   0  0  0  0  0  0  0  0  0  0  0  0
   -2.7790   12.1400   22.7910 H   0  0  0  0  0  0  0  0  0  0  0  0
   -1.5400   12.6540   23.9130 H   0  0  0  0  0  0  0  0  0  0  0  0
   -1.7030   13.9910   21.7270 H   0  0  0  0  0  0  0  0  0  0  0  0
   -0.1120   13.4640   22.2480 H   0  0  0  0  0  0  0  0  0  0  0  0
   -0.1610   13.0560   19.9430 H   0  0  0  0  0  0  0  0  0  0  0  0
    2.4720    7.5380   18.5650 C   0  0  0  0  0  0  0  0  0  0  0  0
    2.2910    6.7400   19.6980 C   0  0  0  0  0  0  0  0  0  0  0  0
    1.5580    7.2160   20.7920 C   0  0  0  0  0  0  0  0  0  0  0  0
    1.0110    8.4970   20.7650 C   0  0  0  0  0  0  0  0  0  0  0  0
    1.2090    9.3030   19.6400 C   0  0  0  0  0  0  0  0  0  0  0  0
    1.9140    8.8190   18.5360 C   0  0  0  0  0  0  0  0  0  0  0  0
    2.6800    5.7280   19.7570 H   0  0  0  0  0  0  0  0  0  0  0  0
    1.4010    6.5770   21.6570 H   0  0  0  0  0  0  0  0  0  0  0  0
    0.4210    8.8580   21.6030 H   0  0  0  0  0  0  0  0  0  0  0  0
    2.0250    9.4390   17.6490 H   0  0  0  0  0  0  0  0  0  0  0  0
    3.1440    7.1880   17.4290 O   0  0  0  0  0  0  0  0  0  0  0  0
    4.4380    6.5770   17.5560 C   0  0  0  0  0  0  0  0  0  0  0  0
    5.1040    7.1980   18.1690 H   0  0  0  0  0  0  0  0  0  0  0  0
    4.8700    6.5870   16.5480 H   0  0  0  0  0  0  0  0  0  0  0  0
    3.9260    3.1350   18.2190 C   0  0  0  0  0  0  0  0  0  0  0  0
    3.5990    4.1880   17.5060 N   0  0  0  0  0  0  0  0  0  0  0  0
    4.4250    5.1590   18.0230 C   0  0  0  0  0  0  0  0  0  0  0  0
    5.2290    4.7380   19.0130 N   0  0  0  0  0  0  0  0  0  0  0  0
    4.8990    3.3870   19.1420 O   0  0  0  0  0  0  0  0  0  0  0  0
    3.4080    1.7580   18.1590 C   0  0  0  0  0  0  0  0  0  0  0  0
    2.9490    1.4750   19.1110 H   0  0  0  0  0  0  0  0  0  0  0  0
    2.6500    1.6690   17.3740 H   0  0  0  0  0  0  0  0  0  0  0  0
    4.2150    1.0510   17.9440 H   0  0  0  0  0  0  0  0  0  0  0  0
   -2.0810   12.1990   19.7250 C   0  0  0  0  0  0  0  0  0  0  0  0
   -2.2800   11.4810   18.5220 C   0  0  0  0  0  0  0  0  0  0  0  0
   -3.5450   11.5210   18.0920 N   0  0  0  0  0  0  0  0  0  0  0  0
   -4.1590   12.2960   18.9990 N   0  0  0  0  0  0  0  0  0  0  0  0
   -3.3340   12.7080   20.0040 C   0  0  0  0  0  0  0  0  0  0  0  0
   -1.5570   10.9290   17.9390 H   0  0  0  0  0  0  0  0  0  0  0  0
   -5.1440   12.5040   18.8700 H   0  0  0  0  0  0  0  0  0  0  0  0
   -3.6940   13.3410   20.8030 H   0  0  0  0  0  0  0  0  0  0  0  0
  1 22  1  0  0  0  0
  1  3  1  0  0  0  0
  2  1  2  0  0  0  0
  3  4  1  0  0  0  0
  4 10  1  0  0  0  0
  4  9  1  0  0  0  0
  4  5  1  0  0  0  0
  5  6  1  0  0  0  0
  5 12  1  0  0  0  0
  6 14  1  0  0  0  0
  7 16  1  0  0  0  0
  7  6  1  0  0  0  0
  8 17  1  6  0  0  0
  8  3  1  0  0  0  0
  8  7  1  0  0  0  0
 11  5  1  0  0  0  0
 13  6  1  0  0  0  0
 15  7  1  0  0  0  0
 18 19  1  0  0  0  0
 19 24  1  0  0  0  0
 19 20  2  0  0  0  0
 20 25  1  0  0  0  0
 21 20  1  0  0  0  0
 21 26  1  0  0  0  0
 22 21  2  0  0  0  0
 23 18  2  0  0  0  0
 23 22  1  0  0  0  0
 27 23  1  0  0  0  0
 28 29  1  0  0  0  0
 28 18  1  0  0  0  0
 29 34  1  0  0  0  0
 29 30  1  0  0  0  0
 31 29  1  0  0  0  0
 32 36  1  0  0  0  0
 33 34  1  0  0  0  0
 33 32  2  0  0  0  0
 34 35  2  0  0  0  0
 35 36  1  0  0  0  0
 37 32  1  0  0  0  0
 37 38  1  0  0  0  0
 39 37  1  0  0  0  0
 40 37  1  0  0  0  0
 41 45  2  0  0  0  0
 41  8  1  0  0  0  0
 42 41  1  0  0  0  0
 43 42  2  0  0  0  0
 43 44  1  0  0  0  0
 44 45  1  0  0  0  0
 45 48  1  0  0  0  0
 46 42  1  0  0  0  0
 47 44  1  0  0  0  0
M  END
>  <MODEL>
31

>  <REMARK>
 VINA RESULT:    -6.982      2.117      8.718
 INTER + INTRA:          -8.606
 INTER:                  -9.795
 INTRA:                   1.189
 UNBOUND:                 0.621
  Name = 
  6 active torsions:
  status: ('A' for Active; 'I' for Inactive)
    1  A    between atoms: C_1  and  C_2
    2  A    between atoms: C_4  and  C_5
    3  A    between atoms: C_5  and  O_6
    4  A    between atoms: O_6  and  C_7
    5  A    between atoms: C_11  and  C_12
    6  A    between atoms: C_19  and  C_20
                            x       y       z     vdW  Elec       q    Type
                         _______ _______ _______ _____ _____    ______ ____

>  <TORSDO>
F 6

$$$$
=
 OpenBabel07192307433D

 48 51  0  0  1  0  0  0  0  0999 V2000
    1.5620    9.4990   19.2400 C   0  0  0  0  0  0  0  0  0  0  0  0
    2.0070   10.0340   18.2250 O   0  0  0  0  0  0  0  0  0  0  0  0
    0.8270   10.1740   20.2230 N   0  0  0  0  0  0  0  0  0  0  0  0
    0.8310    9.7530   21.6260 C   0  0  0  0  0  0  0  0  0  0  0  0
   -0.4140   10.2240   22.3660 C   0  0  0  0  0  0  0  0  0  0  0  0
   -0.6430   11.7310   22.2500 C   0  0  0  0  0  0  0  0  0  0  0  0
    0.2690   12.4030   21.2260 C   0  0  0  0  0  0  0  0  0  0  0  0
    0.4840   11.5750   19.9480 C   0  0  2  0  0  0  0  0  0  0  0  0
    1.7350   10.1720   22.0870 H   0  0  0  0  0  0  0  0  0  0  0  0
    0.9170    8.6680   21.7210 H   0  0  0  0  0  0  0  0  0  0  0  0
   -1.2890    9.6960   21.9680 H   0  0  0  0  0  0  0  0  0  0  0  0
   -0.3460    9.9420   23.4230 H   0  0  0  0  0  0  0  0  0  0  0  0
   -1.6940   11.9160   21.9960 H   0  0  0  0  0  0  0  0  0  0  0  0
   -0.4860   12.2030   23.2270 H   0  0  0  0  0  0  0  0  0  0  0  0
   -0.1160   13.4030   20.9870 H   0  0  0  0  0  0  0  0  0  0  0  0
    1.2480   12.5600   21.7000 H   0  0  0  0  0  0  0  0  0  0  0  0
    1.3330   12.0310   19.4210 H   0  0  0  0  0  0  0  0  0  0  0  0
    2.5580    5.9450   18.4830 C   0  0  0  0  0  0  0  0  0  0  0  0
    2.2480    5.3180   19.6930 C   0  0  0  0  0  0  0  0  0  0  0  0
    1.7060    6.0540   20.7540 C   0  0  0  0  0  0  0  0  0  0  0  0
    1.4820    7.4230   20.6160 C   0  0  0  0  0  0  0  0  0  0  0  0
    1.8120    8.0530   19.4130 C   0  0  0  0  0  0  0  0  0  0  0  0
    2.3240    7.3160   18.3430 C   0  0  0  0  0  0  0  0  0  0  0  0
    2.3840    4.2520   19.8400 H   0  0  0  0  0  0  0  0  0  0  0  0
    1.4430    5.5520   21.6820 H   0  0  0  0  0  0  0  0  0  0  0  0
    1.0390    7.9890   21.4310 H   0  0  0  0  0  0  0  0  0  0  0  0
    2.5360    7.8090   17.3970 H   0  0  0  0  0  0  0  0  0  0  0  0
    3.0690    5.3430   17.3680 O   0  0  0  0  0  0  0  0  0  0  0  0
    4.3240    4.6530   17.4740 C   0  0  0  0  0  0  0  0  0  0  0  0
    5.1150    5.3330   17.8160 H   0  0  0  0  0  0  0  0  0  0  0  0
    4.5960    4.3750   16.4480 H   0  0  0  0  0  0  0  0  0  0  0  0
    4.6240    2.0100   19.8140 C   0  0  0  0  0  0  0  0  0  0  0  0
    4.9100    3.2530   19.5020 N   0  0  0  0  0  0  0  0  0  0  0  0
    4.2900    3.3980   18.2830 C   0  0  0  0  0  0  0  0  0  0  0  0
    3.6500    2.3000   17.8490 N   0  0  0  0  0  0  0  0  0  0  0  0
    3.8700    1.3740   18.8720 O   0  0  0  0  0  0  0  0  0  0  0  0
    4.9900    1.2300   21.0090 C   0  0  0  0  0  0  0  0  0  0  0  0
    4.0960    0.8290   21.4970 H   0  0  0  0  0  0  0  0  0  0  0  0
    5.6370    0.3910   20.7340 H   0  0  0  0  0  0  0  0  0  0  0  0
    5.5220    1.8570   21.7310 H   0  0  0  0  0  0  0  0  0  0  0  0
   -0.7030   11.6220   19.0250 C   0  0  0  0  0  0  0  0  0  0  0  0
   -1.7190   10.6590   18.8180 C   0  0  0  0  0  0  0  0  0  0  0  0
   -2.6240   11.0400   17.9120 N   0  0  0  0  0  0  0  0  0  0  0  0
   -2.1740   12.2370   17.5050 N   0  0  0  0  0  0  0  0  0  0  0  0
   -1.0440   12.6380   18.1530 C   0  0  0  0  0  0  0  0  0  0  0  0
   -1.8390    9.6940   19.2890 H   0  0  0  0  0  0  0  0  0  0  0  0
   -2.6890   12.7250   16.7790 H   0  0  0  0  0  0  0  0  0  0  0  0
   -0.5690   13.5820   17.9240 H   0  0  0  0  0  0  0  0  0  0  0  0
  1 22  1  0  0  0  0
  1  3  1  0  0  0  0
  2  1  2  0  0  0  0
  3  4  1  0  0  0  0
  4 10  1  0  0  0  0
  4  9  1  0  0  0  0
  4  5  1  0  0  0  0
  5 12  1  0  0  0  0
  6  5  1  0  0  0  0
  6 14  1  0  0  0  0
  7 16  1  0  0  0  0
  7  6  1  0  0  0  0
  8 17  1  6  0  0  0
  8  3  1  0  0  0  0
  8  7  1  0  0  0  0
 11  5  1  0  0  0  0
 13  6  1  0  0  0  0
 15  7  1  0  0  0  0
 18 19  1  0  0  0  0
 19 24  1  0  0  0  0
 19 20  2  0  0  0  0
 20 25  1  0  0  0  0
 21 20  1  0  0  0  0
 21 26  1  0  0  0  0
 22 21  2  0  0  0  0
 23 18  2  0  0  0  0
 23 22  1  0  0  0  0
 27 23  1  0  0  0  0
 28 29  1  0  0  0  0
 28 18  1  0  0  0  0
 29 30  1  0  0  0  0
 29 34  1  0  0  0  0
 31 29  1  0  0  0  0
 32 37  1  0  0  0  0
 33 32  2  0  0  0  0
 34 33  1  0  0  0  0
 35 34  2  0  0  0  0
 35 36  1  0  0  0  0
 36 32  1  0  0  0  0
 37 38  1  0  0  0  0
 37 40  1  0  0  0  0
 39 37  1  0  0  0  0
 41  8  1  0  0  0  0
 42 41  1  0  0  0  0
 42 46  1  0  0  0  0
 43 42  2  0  0  0  0
 44 43  1  0  0  0  0
 44 45  1  0  0  0  0
 45 41  2  0  0  0  0
 47 44  1  0  0  0  0
 48 45  1  0  0  0  0
M  END
>  <MODEL>
32

>  <REMARK>
 VINA RESULT:    -6.862      2.411      8.602
 INTER + INTRA:          -8.447
 INTER:                  -9.068
 INTRA:                   0.621
 UNBOUND:                 0.621
  Name = 
  6 active torsions:
  status: ('A' for Active; 'I' for Inactive)
    1  A    between atoms: C_1  and  C_2
    2  A    between atoms: C_4  and  C_5
    3  A    between atoms: C_5  and  O_6
    4  A    between atoms: O_6  and  C_7
    5  A    between atoms: C_11  and  C_12
    6  A    between atoms: C_19  and  C_20
                            x       y       z     vdW  Elec       q    Type
                         _______ _______ _______ _____ _____    ______ ____

>  <TORSDO>
F 6

$$$$
