=
 OpenBabel07192307433D

 52 54  0  0  1  0  0  0  0  0999 V2000
    7.3180    5.2740   16.9420 C   0  0  0  0  0  0  0  0  0  0  0  0
    6.5450    4.7390   15.7330 C   0  0  0  0  0  0  0  0  0  0  0  0
    5.0470    4.9770   15.8700 C   0  0  0  0  0  0  0  0  0  0  0  0
    4.5300    4.3690   17.1490 N   0  0  0  0  0  4  0  0  0  0  0  0
    5.2660    4.8940   18.3650 C   0  0  0  0  0  0  0  0  0  0  0  0
    6.7510    4.6240   18.2100 C   0  0  0  0  0  0  0  0  0  0  0  0
    8.3750    5.0000   16.8440 H   0  0  0  0  0  0  0  0  0  0  0  0
    6.9030    5.2110   14.8120 H   0  0  0  0  0  0  0  0  0  0  0  0
    6.7310    3.6620   15.6310 H   0  0  0  0  0  0  0  0  0  0  0  0
    4.5120    4.4990   15.0420 H   0  0  0  0  0  0  0  0  0  0  0  0
    4.8000    6.0450   15.8850 H   0  0  0  0  0  0  0  0  0  0  0  0
    4.6940    3.3550   17.1110 H   0  0  0  0  0  0  0  0  0  0  0  0
    4.8850    4.3620   19.2410 H   0  0  0  0  0  0  0  0  0  0  0  0
    5.0410    5.9620   18.4600 H   0  0  0  0  0  0  0  0  0  0  0  0
    7.2730    4.9550   19.1110 H   0  0  0  0  0  0  0  0  0  0  0  0
    6.9150    3.5390   18.1540 H   0  0  0  0  0  0  0  0  0  0  0  0
    8.3570    7.0120   18.9580 O   0  0  0  0  0  0  0  0  0  0  0  0
    7.9030    7.4850   17.9250 C   0  0  0  0  0  0  0  0  0  0  0  0
    7.2710    6.7350   16.9480 N   0  0  0  0  0  0  0  0  0  0  0  0
    7.3220    7.1980   16.0340 H   0  0  0  0  0  0  0  0  0  0  0  0
    7.9770    8.9610   17.6010 C   0  0  0  0  0  0  0  0  0  0  0  0
    6.9530    9.3450   17.5250 H   0  0  0  0  0  0  0  0  0  0  0  0
    8.4220    9.0880   16.6080 H   0  0  0  0  0  0  0  0  0  0  0  0
    8.7550    9.7670   18.6410 C   0  0  0  0  0  0  0  0  0  0  0  0
    8.0630    9.9650   19.4710 H   0  0  0  0  0  0  0  0  0  0  0  0
    9.5690    9.1590   19.0540 H   0  0  0  0  0  0  0  0  0  0  0  0
    9.3380   11.0890   18.1340 C   0  0  2  0  0  0  0  0  0  0  0  0
    9.8530   11.9910   19.2460 C   0  0  0  0  0  0  0  0  0  0  0  0
    9.6390   13.3640   18.6590 C   0  0  0  0  0  0  0  0  0  0  0  0
    8.3280   13.1800   17.9310 C   0  0  0  0  0  0  0  0  0  0  0  0
    8.3460   11.8420   17.3990 O   0  0  0  0  0  0  0  0  0  0  0  0
   10.1520   10.8840   17.4280 H   0  0  0  0  0  0  0  0  0  0  0  0
   10.8970   11.7890   19.5070 H   0  0  0  0  0  0  0  0  0  0  0  0
    9.2510   11.8840   20.1570 H   0  0  0  0  0  0  0  0  0  0  0  0
   10.4380   13.5920   17.9440 H   0  0  0  0  0  0  0  0  0  0  0  0
    9.6060   14.1590   19.4080 H   0  0  0  0  0  0  0  0  0  0  0  0
    8.1880   13.8980   17.1180 H   0  0  0  0  0  0  0  0  0  0  0  0
    7.4770   13.2520   18.6190 H   0  0  0  0  0  0  0  0  0  0  0  0
    3.0280    4.5460   17.2660 C   0  0  0  0  0  0  0  0  0  0  0  0
    2.8130    5.6130   17.1400 H   0  0  0  0  0  0  0  0  0  0  0  0
    2.5700    4.0100   16.4260 H   0  0  0  0  0  0  0  0  0  0  0  0
    2.4650    4.0050   18.5530 C   0  0  0  0  0  0  0  0  0  0  0  0
    1.9850    4.8790   19.5440 C   0  0  0  0  0  0  0  0  0  0  0  0
    1.4450    4.3740   20.7280 C   0  0  0  0  0  0  0  0  0  0  0  0
    1.3770    3.0000   20.9230 C   0  0  0  0  0  0  0  0  0  0  0  0
    0.8530    2.5190   22.0570 F   0  0  0  0  0  0  0  0  0  0  0  0
    1.8510    2.1190   19.9600 C   0  0  0  0  0  0  0  0  0  0  0  0
    2.3980    2.6190   18.7760 C   0  0  0  0  0  0  0  0  0  0  0  0
    2.0370    5.9580   19.4190 H   0  0  0  0  0  0  0  0  0  0  0  0
    1.0750    5.0390   21.5060 H   0  0  0  0  0  0  0  0  0  0  0  0
    1.7930    1.0490   20.1410 H   0  0  0  0  0  0  0  0  0  0  0  0
    2.7740    1.9100   18.0390 H   0  0  0  0  0  0  0  0  0  0  0  0
  1 19  1  0  0  0  0
  1  6  1  0  0  0  0
  2  3  1  0  0  0  0
  2  1  1  0  0  0  0
  3 11  1  0  0  0  0
  3  4  1  0  0  0  0
  4 39  1  0  0  0  0
  4  5  1  0  0  0  0
  5 14  1  0  0  0  0
  5 13  1  0  0  0  0
  6  5  1  0  0  0  0
  6 15  1  0  0  0  0
  7  1  1  0  0  0  0
  8  2  1  0  0  0  0
  9  2  1  0  0  0  0
 10  3  1  0  0  0  0
 12  4  1  0  0  0  0
 16  6  1  0  0  0  0
 18 17  2  0  0  0  0
 19 18  1  0  0  0  0
 20 19  1  0  0  0  0
 21 18  1  0  0  0  0
 21 24  1  0  0  0  0
 22 21  1  0  0  0  0
 23 21  1  0  0  0  0
 24 26  1  0  0  0  0
 24 25  1  0  0  0  0
 27 32  1  6  0  0  0
 27 24  1  0  0  0  0
 27 28  1  0  0  0  0
 28 33  1  0  0  0  0
 28 34  1  0  0  0  0
 29 28  1  0  0  0  0
 29 36  1  0  0  0  0
 30 38  1  0  0  0  0
 30 29  1  0  0  0  0
 31 30  1  0  0  0  0
 31 27  1  0  0  0  0
 35 29  1  0  0  0  0
 37 30  1  0  0  0  0
 39 42  1  0  0  0  0
 40 39  1  0  0  0  0
 41 39  1  0  0  0  0
 42 48  2  0  0  0  0
 42 43  1  0  0  0  0
 43 44  2  0  0  0  0
 44 45  1  0  0  0  0
 44 50  1  0  0  0  0
 45 46  1  0  0  0  0
 47 51  1  0  0  0  0
 47 45  2  0  0  0  0
 48 47  1  0  0  0  0
 49 43  1  0  0  0  0
 52 48  1  0  0  0  0
M  END
>  <MODEL>
1

>  <REMARK>
 VINA RESULT:    -7.327      0.000      0.000
 INTER + INTRA:         -11.116
 INTER:                 -10.859
 INTRA:                  -0.258
 UNBOUND:                -1.219
  Name = 
  6 active torsions:
  status: ('A' for Active; 'I' for Inactive)
    1  A    between atoms: C_2  and  C_3
    2  A    between atoms: C_3  and  C_4
    3  A    between atoms: C_4  and  C_5
    4  A    between atoms: N_10  and  C_11
    5  A    between atoms: N_14  and  C_15
    6  A    between atoms: C_15  and  C_16
                            x       y       z     vdW  Elec       q    Type
                         _______ _______ _______ _____ _____    ______ ____

>  <TORSDO>
F 6

$$$$
=
 OpenBabel07192307433D

 52 54  0  0  1  0  0  0  0  0999 V2000
    2.7240    5.4450   19.4510 C   0  0  0  0  0  0  0  0  0  0  0  0
    2.2740    5.8030   18.0320 C   0  0  0  0  0  0  0  0  0  0  0  0
    2.3670    7.3010   17.7700 C   0  0  0  0  0  0  0  0  0  0  0  0
    1.5680    8.0660   18.7950 N   0  0  0  0  0  4  0  0  0  0  0  0
    2.0040    7.7440   20.2100 C   0  0  0  0  0  0  0  0  0  0  0  0
    1.8810    6.2500   20.4470 C   0  0  0  0  0  0  0  0  0  0  0  0
    2.5540    4.3760   19.6250 H   0  0  0  0  0  0  0  0  0  0  0  0
    2.8830    5.2690   17.2930 H   0  0  0  0  0  0  0  0  0  0  0  0
    1.2380    5.4750   17.8860 H   0  0  0  0  0  0  0  0  0  0  0  0
    1.9480    7.5370   16.7860 H   0  0  0  0  0  0  0  0  0  0  0  0
    3.4010    7.6620   17.8150 H   0  0  0  0  0  0  0  0  0  0  0  0
    0.5840    7.7830   18.7090 H   0  0  0  0  0  0  0  0  0  0  0  0
    1.3400    8.2810   20.8930 H   0  0  0  0  0  0  0  0  0  0  0  0
    3.0300    8.1060   20.3370 H   0  0  0  0  0  0  0  0  0  0  0  0
    2.1450    6.0280   21.4840 H   0  0  0  0  0  0  0  0  0  0  0  0
    0.8290    5.9550   20.3390 H   0  0  0  0  0  0  0  0  0  0  0  0
    4.7880    3.5350   18.9480 O   0  0  0  0  0  0  0  0  0  0  0  0
    5.0850    4.6940   19.2050 C   0  0  0  0  0  0  0  0  0  0  0  0
    4.1640    5.6580   19.5790 N   0  0  0  0  0  0  0  0  0  0  0  0
    4.5090    6.6000   19.3670 H   0  0  0  0  0  0  0  0  0  0  0  0
    6.5080    5.2040   19.1480 C   0  0  0  0  0  0  0  0  0  0  0  0
    7.1620    4.3610   18.8940 H   0  0  0  0  0  0  0  0  0  0  0  0
    6.8120    5.5320   20.1490 H   0  0  0  0  0  0  0  0  0  0  0  0
    6.7030    6.3320   18.1350 C   0  0  0  0  0  0  0  0  0  0  0  0
    5.8540    7.0170   18.2570 H   0  0  0  0  0  0  0  0  0  0  0  0
    7.6040    6.9060   18.3840 H   0  0  0  0  0  0  0  0  0  0  0  0
    6.7950    5.8830   16.6750 C   0  0  2  0  0  0  0  0  0  0  0  0
    5.4880    6.0400   15.9090 C   0  0  0  0  0  0  0  0  0  0  0  0
    5.5830    4.9260   14.8970 C   0  0  0  0  0  0  0  0  0  0  0  0
    6.2390    3.8350   15.7100 C   0  0  0  0  0  0  0  0  0  0  0  0
    7.1760    4.4910   16.5860 O   0  0  0  0  0  0  0  0  0  0  0  0
    7.5830    6.4490   16.1650 H   0  0  0  0  0  0  0  0  0  0  0  0
    5.3810    7.0300   15.4540 H   0  0  0  0  0  0  0  0  0  0  0  0
    4.6220    5.8710   16.5600 H   0  0  0  0  0  0  0  0  0  0  0  0
    6.2410    5.2260   14.0720 H   0  0  0  0  0  0  0  0  0  0  0  0
    4.6180    4.6290   14.4810 H   0  0  0  0  0  0  0  0  0  0  0  0
    6.7650    3.1000   15.0930 H   0  0  0  0  0  0  0  0  0  0  0  0
    5.5080    3.3120   16.3390 H   0  0  0  0  0  0  0  0  0  0  0  0
    1.6020    9.5540   18.5070 C   0  0  0  0  0  0  0  0  0  0  0  0
    2.3410   10.0020   19.1810 H   0  0  0  0  0  0  0  0  0  0  0  0
    1.9660    9.6800   17.4800 H   0  0  0  0  0  0  0  0  0  0  0  0
    0.2540   10.2140   18.6300 C   0  0  0  0  0  0  0  0  0  0  0  0
    0.0160   11.1670   19.6350 C   0  0  0  0  0  0  0  0  0  0  0  0
   -1.2290   11.7920   19.7330 C   0  0  0  0  0  0  0  0  0  0  0  0
   -2.2330   11.4720   18.8280 C   0  0  0  0  0  0  0  0  0  0  0  0
   -3.4230   12.0770   18.9220 F   0  0  0  0  0  0  0  0  0  0  0  0
   -2.0210   10.5290   17.8310 C   0  0  0  0  0  0  0  0  0  0  0  0
   -0.7790    9.8960   17.7320 C   0  0  0  0  0  0  0  0  0  0  0  0
    0.7830   11.4260   20.3620 H   0  0  0  0  0  0  0  0  0  0  0  0
   -1.4290   12.5270   20.5100 H   0  0  0  0  0  0  0  0  0  0  0  0
   -2.8260   10.2910   17.1420 H   0  0  0  0  0  0  0  0  0  0  0  0
   -0.6390    9.1510   16.9500 H   0  0  0  0  0  0  0  0  0  0  0  0
  1 19  1  0  0  0  0
  1  7  1  0  0  0  0
  1  6  1  0  0  0  0
  2  1  1  0  0  0  0
  3 11  1  0  0  0  0
  3  2  1  0  0  0  0
  3  4  1  0  0  0  0
  4  5  1  0  0  0  0
  5 14  1  0  0  0  0
  5  6  1  0  0  0  0
  5 13  1  0  0  0  0
  6 15  1  0  0  0  0
  8  2  1  0  0  0  0
  9  2  1  0  0  0  0
 10  3  1  0  0  0  0
 12  4  1  0  0  0  0
 16  6  1  0  0  0  0
 17 18  2  0  0  0  0
 18 19  1  0  0  0  0
 20 19  1  0  0  0  0
 21 18  1  0  0  0  0
 21 23  1  0  0  0  0
 22 21  1  0  0  0  0
 24 25  1  0  0  0  0
 24 26  1  0  0  0  0
 24 21  1  0  0  0  0
 27 32  1  6  0  0  0
 27 24  1  0  0  0  0
 28 34  1  0  0  0  0
 28 27  1  0  0  0  0
 29 30  1  0  0  0  0
 29 28  1  0  0  0  0
 30 38  1  0  0  0  0
 30 31  1  0  0  0  0
 31 27  1  0  0  0  0
 33 28  1  0  0  0  0
 35 29  1  0  0  0  0
 36 29  1  0  0  0  0
 37 30  1  0  0  0  0
 39 42  1  0  0  0  0
 39  4  1  0  0  0  0
 39 40  1  0  0  0  0
 41 39  1  0  0  0  0
 42 43  1  0  0  0  0
 43 44  2  0  0  0  0
 43 49  1  0  0  0  0
 44 50  1  0  0  0  0
 45 46  1  0  0  0  0
 45 44  1  0  0  0  0
 47 45  2  0  0  0  0
 48 47  1  0  0  0  0
 48 42  2  0  0  0  0
 51 47  1  0  0  0  0
 52 48  1  0  0  0  0
M  END
>  <MODEL>
2

>  <REMARK>
 VINA RESULT:    -6.847      4.693      6.890
 INTER + INTRA:         -10.467
 INTER:                  -9.406
 INTRA:                  -1.062
 UNBOUND:                -1.219
  Name = 
  6 active torsions:
  status: ('A' for Active; 'I' for Inactive)
    1  A    between atoms: C_2  and  C_3
    2  A    between atoms: C_3  and  C_4
    3  A    between atoms: C_4  and  C_5
    4  A    between atoms: N_10  and  C_11
    5  A    between atoms: N_14  and  C_15
    6  A    between atoms: C_15  and  C_16
                            x       y       z     vdW  Elec       q    Type
                         _______ _______ _______ _____ _____    ______ ____

>  <TORSDO>
F 6

$$$$
=
 OpenBabel07192307433D

 52 54  0  0  1  0  0  0  0  0999 V2000
    2.5730    2.5840   19.3060 C   0  0  0  0  0  0  0  0  0  0  0  0
    4.0550    2.7280   19.6620 C   0  0  0  0  0  0  0  0  0  0  0  0
    4.7790    3.6600   18.6990 C   0  0  0  0  0  0  0  0  0  0  0  0
    4.6120    3.1850   17.2770 N   0  0  0  0  0  4  0  0  0  0  0  0
    3.1530    3.0500   16.8930 C   0  0  0  0  0  0  0  0  0  0  0  0
    2.4640    2.1000   17.8560 C   0  0  0  0  0  0  0  0  0  0  0  0
    2.1150    1.8360   19.9650 H   0  0  0  0  0  0  0  0  0  0  0  0
    4.1680    3.1060   20.6840 H   0  0  0  0  0  0  0  0  0  0  0  0
    4.5320    1.7400   19.6340 H   0  0  0  0  0  0  0  0  0  0  0  0
    5.8520    3.6670   18.9170 H   0  0  0  0  0  0  0  0  0  0  0  0
    4.3970    4.6860   18.7550 H   0  0  0  0  0  0  0  0  0  0  0  0
    5.0330    2.2510   17.2010 H   0  0  0  0  0  0  0  0  0  0  0  0
    3.1110    2.6400   15.8800 H   0  0  0  0  0  0  0  0  0  0  0  0
    2.7080    4.0510   16.9010 H   0  0  0  0  0  0  0  0  0  0  0  0
    1.4260    1.9630   17.5440 H   0  0  0  0  0  0  0  0  0  0  0  0
    2.9300    1.1090   17.7780 H   0  0  0  0  0  0  0  0  0  0  0  0
    2.0230    3.7330   21.8640 O   0  0  0  0  0  0  0  0  0  0  0  0
    1.7600    4.3620   20.8480 C   0  0  0  0  0  0  0  0  0  0  0  0
    1.8790    3.8430   19.5700 N   0  0  0  0  0  0  0  0  0  0  0  0
    2.0060    4.5890   18.8780 H   0  0  0  0  0  0  0  0  0  0  0  0
    1.2660    5.7920   20.8780 C   0  0  0  0  0  0  0  0  0  0  0  0
    1.3090    6.1450   21.9150 H   0  0  0  0  0  0  0  0  0  0  0  0
    0.2070    5.8110   20.5960 H   0  0  0  0  0  0  0  0  0  0  0  0
    2.0740    6.7270   19.9800 C   0  0  0  0  0  0  0  0  0  0  0  0
    3.1300    6.4550   20.1060 H   0  0  0  0  0  0  0  0  0  0  0  0
    1.8290    6.5400   18.9270 H   0  0  0  0  0  0  0  0  0  0  0  0
    1.8920    8.2200   20.2680 C   0  0  2  0  0  0  0  0  0  0  0  0
    0.7800    8.5140   21.2650 C   0  0  0  0  0  0  0  0  0  0  0  0
    0.3100    9.8740   20.8160 C   0  0  0  0  0  0  0  0  0  0  0  0
    0.4150    9.7500   19.3140 C   0  0  0  0  0  0  0  0  0  0  0  0
    1.5810    8.9450   19.0560 O   0  0  0  0  0  0  0  0  0  0  0  0
    2.8340    8.6400   20.6430 H   0  0  0  0  0  0  0  0  0  0  0  0
    1.1270    8.4960   22.3030 H   0  0  0  0  0  0  0  0  0  0  0  0
   -0.0410    7.7920   21.1710 H   0  0  0  0  0  0  0  0  0  0  0  0
    1.0000   10.6460   21.1780 H   0  0  0  0  0  0  0  0  0  0  0  0
   -0.6980   10.1230   21.1560 H   0  0  0  0  0  0  0  0  0  0  0  0
    0.5160   10.7170   18.8120 H   0  0  0  0  0  0  0  0  0  0  0  0
   -0.4510    9.2220   18.8970 H   0  0  0  0  0  0  0  0  0  0  0  0
    5.3800    4.0700   16.3160 C   0  0  0  0  0  0  0  0  0  0  0  0
    5.9670    3.4150   15.6630 H   0  0  0  0  0  0  0  0  0  0  0  0
    4.6430    4.5910   15.6920 H   0  0  0  0  0  0  0  0  0  0  0  0
    6.2390    5.0940   17.0080 C   0  0  0  0  0  0  0  0  0  0  0  0
    7.2280    4.6920   17.9240 C   0  0  0  0  0  0  0  0  0  0  0  0
    8.0370    5.6430   18.5490 C   0  0  0  0  0  0  0  0  0  0  0  0
    7.8670    6.9900   18.2600 C   0  0  0  0  0  0  0  0  0  0  0  0
    8.6480    7.8980   18.8570 F   0  0  0  0  0  0  0  0  0  0  0  0
    6.8920    7.4090   17.3630 C   0  0  0  0  0  0  0  0  0  0  0  0
    6.0760    6.4640   16.7390 C   0  0  0  0  0  0  0  0  0  0  0  0
    7.3740    3.6440   18.1750 H   0  0  0  0  0  0  0  0  0  0  0  0
    8.8030    5.3460   19.2640 H   0  0  0  0  0  0  0  0  0  0  0  0
    6.7740    8.4700   17.1610 H   0  0  0  0  0  0  0  0  0  0  0  0
    5.3100    6.8150   16.0480 H   0  0  0  0  0  0  0  0  0  0  0  0
  1 19  1  0  0  0  0
  1  2  1  0  0  0  0
  1  7  1  0  0  0  0
  2  8  1  0  0  0  0
  3 11  1  0  0  0  0
  3 10  1  0  0  0  0
  3  2  1  0  0  0  0
  4  3  1  0  0  0  0
  5 14  1  0  0  0  0
  5  4  1  0  0  0  0
  5  6  1  0  0  0  0
  6  1  1  0  0  0  0
  9  2  1  0  0  0  0
 12  4  1  0  0  0  0
 13  5  1  0  0  0  0
 15  6  1  0  0  0  0
 16  6  1  0  0  0  0
 18 21  1  0  0  0  0
 18 17  2  0  0  0  0
 19 18  1  0  0  0  0
 20 19  1  0  0  0  0
 21 22  1  0  0  0  0
 23 21  1  0  0  0  0
 24 25  1  0  0  0  0
 24 27  1  0  0  0  0
 24 21  1  0  0  0  0
 26 24  1  0  0  0  0
 27 32  1  1  0  0  0
 27 28  1  0  0  0  0
 28 33  1  0  0  0  0
 29 36  1  0  0  0  0
 29 35  1  0  0  0  0
 29 28  1  0  0  0  0
 30 29  1  0  0  0  0
 31 30  1  0  0  0  0
 31 27  1  0  0  0  0
 34 28  1  0  0  0  0
 37 30  1  0  0  0  0
 38 30  1  0  0  0  0
 39 42  1  0  0  0  0
 39  4  1  0  0  0  0
 40 39  1  0  0  0  0
 41 39  1  0  0  0  0
 42 43  1  0  0  0  0
 43 49  1  0  0  0  0
 43 44  2  0  0  0  0
 44 50  1  0  0  0  0
 45 44  1  0  0  0  0
 45 46  1  0  0  0  0
 47 45  2  0  0  0  0
 48 42  2  0  0  0  0
 48 47  1  0  0  0  0
 51 47  1  0  0  0  0
 52 48  1  0  0  0  0
M  END
>  <MODEL>
3

>  <REMARK>
 VINA RESULT:    -6.753      4.009      6.935
 INTER + INTRA:         -10.341
 INTER:                 -10.292
 INTRA:                  -0.048
 UNBOUND:                -1.219
  Name = 
  6 active torsions:
  status: ('A' for Active; 'I' for Inactive)
    1  A    between atoms: C_2  and  C_3
    2  A    between atoms: C_3  and  C_4
    3  A    between atoms: C_4  and  C_5
    4  A    between atoms: N_10  and  C_11
    5  A    between atoms: N_14  and  C_15
    6  A    between atoms: C_15  and  C_16
                            x       y       z     vdW  Elec       q    Type
                         _______ _______ _______ _____ _____    ______ ____

>  <TORSDO>
F 6

$$$$
=
 OpenBabel07192307433D

 52 54  0  0  1  0  0  0  0  0999 V2000
    3.7600    2.9550   17.4220 C   0  0  0  0  0  0  0  0  0  0  0  0
    2.2340    3.0860   17.4280 C   0  0  0  0  0  0  0  0  0  0  0  0
    1.7580    4.1040   18.4550 C   0  0  0  0  0  0  0  0  0  0  0  0
    2.2710    3.7490   19.8280 N   0  0  0  0  0  4  0  0  0  0  0  0
    3.7810    3.6290   19.8560 C   0  0  0  0  0  0  0  0  0  0  0  0
    4.2240    2.5940   18.8380 C   0  0  0  0  0  0  0  0  0  0  0  0
    4.0500    2.1490   16.7370 H   0  0  0  0  0  0  0  0  0  0  0  0
    1.8720    3.3780   16.4350 H   0  0  0  0  0  0  0  0  0  0  0  0
    1.7870    2.1090   17.6540 H   0  0  0  0  0  0  0  0  0  0  0  0
    0.6640    4.1050   18.5050 H   0  0  0  0  0  0  0  0  0  0  0  0
    2.1060    5.1170   18.2210 H   0  0  0  0  0  0  0  0  0  0  0  0
    1.8900    2.8300   20.0840 H   0  0  0  0  0  0  0  0  0  0  0  0
    4.0720    3.3070   20.8590 H   0  0  0  0  0  0  0  0  0  0  0  0
    4.2010    4.6210   19.6550 H   0  0  0  0  0  0  0  0  0  0  0  0
    5.3070    2.4720   18.8970 H   0  0  0  0  0  0  0  0  0  0  0  0
    3.7990    1.6190   19.1110 H   0  0  0  0  0  0  0  0  0  0  0  0
    5.9580    3.1410   15.6050 O   0  0  0  0  0  0  0  0  0  0  0  0
    5.3520    4.1530   15.9300 C   0  0  0  0  0  0  0  0  0  0  0  0
    4.3560    4.1790   16.8910 N   0  0  0  0  0  0  0  0  0  0  0  0
    3.7220    4.9720   16.7470 H   0  0  0  0  0  0  0  0  0  0  0  0
    5.6340    5.5060   15.3130 C   0  0  0  0  0  0  0  0  0  0  0  0
    5.1930    5.5200   14.3090 H   0  0  0  0  0  0  0  0  0  0  0  0
    6.7150    5.6170   15.1700 H   0  0  0  0  0  0  0  0  0  0  0  0
    5.0820    6.6700   16.1360 C   0  0  0  0  0  0  0  0  0  0  0  0
    5.0140    7.5320   15.4600 H   0  0  0  0  0  0  0  0  0  0  0  0
    4.0570    6.4470   16.4600 H   0  0  0  0  0  0  0  0  0  0  0  0
    5.9130    7.0470   17.3650 C   0  0  2  0  0  0  0  0  0  0  0  0
    7.4140    7.0360   17.1080 C   0  0  0  0  0  0  0  0  0  0  0  0
    7.9600    6.6740   18.4670 C   0  0  0  0  0  0  0  0  0  0  0  0
    6.9350    5.6740   18.9480 C   0  0  0  0  0  0  0  0  0  0  0  0
    5.6610    6.1340   18.4580 O   0  0  0  0  0  0  0  0  0  0  0  0
    5.6140    8.0400   17.7210 H   0  0  0  0  0  0  0  0  0  0  0  0
    7.7850    7.9950   16.7330 H   0  0  0  0  0  0  0  0  0  0  0  0
    7.6890    6.2610   16.3840 H   0  0  0  0  0  0  0  0  0  0  0  0
    7.9580    7.5570   19.1170 H   0  0  0  0  0  0  0  0  0  0  0  0
    8.9740    6.2680   18.4360 H   0  0  0  0  0  0  0  0  0  0  0  0
    6.9010    5.5880   20.0380 H   0  0  0  0  0  0  0  0  0  0  0  0
    7.1160    4.6800   18.5190 H   0  0  0  0  0  0  0  0  0  0  0  0
    1.7520    4.7210   20.8690 C   0  0  0  0  0  0  0  0  0  0  0  0
    0.7560    4.3790   21.1710 H   0  0  0  0  0  0  0  0  0  0  0  0
    2.4110    4.6450   21.7430 H   0  0  0  0  0  0  0  0  0  0  0  0
    1.7390    6.1490   20.3930 C   0  0  0  0  0  0  0  0  0  0  0  0
    2.3690    6.5040   19.1880 C   0  0  0  0  0  0  0  0  0  0  0  0
    2.3370    7.8260   18.7390 C   0  0  0  0  0  0  0  0  0  0  0  0
    1.6740    8.7920   19.4860 C   0  0  0  0  0  0  0  0  0  0  0  0
    1.6410   10.0560   19.0490 F   0  0  0  0  0  0  0  0  0  0  0  0
    1.0500    8.4630   20.6830 C   0  0  0  0  0  0  0  0  0  0  0  0
    1.0840    7.1440   21.1400 C   0  0  0  0  0  0  0  0  0  0  0  0
    2.9030    5.7690   18.5910 H   0  0  0  0  0  0  0  0  0  0  0  0
    2.8250    8.1160   17.8100 H   0  0  0  0  0  0  0  0  0  0  0  0
    0.5460    9.2390   21.2520 H   0  0  0  0  0  0  0  0  0  0  0  0
    0.5980    6.9110   22.0870 H   0  0  0  0  0  0  0  0  0  0  0  0
  1  2  1  0  0  0  0
  1  6  1  0  0  0  0
  2  9  1  0  0  0  0
  2  3  1  0  0  0  0
  3 10  1  0  0  0  0
  3  4  1  0  0  0  0
  4  5  1  0  0  0  0
  4 12  1  0  0  0  0
  4 39  1  0  0  0  0
  5 13  1  0  0  0  0
  6 15  1  0  0  0  0
  6 16  1  0  0  0  0
  6  5  1  0  0  0  0
  7  1  1  0  0  0  0
  8  2  1  0  0  0  0
 11  3  1  0  0  0  0
 14  5  1  0  0  0  0
 17 18  2  0  0  0  0
 18 19  1  0  0  0  0
 19  1  1  0  0  0  0
 20 19  1  0  0  0  0
 21 18  1  0  0  0  0
 21 24  1  0  0  0  0
 22 21  1  0  0  0  0
 23 21  1  0  0  0  0
 24 26  1  0  0  0  0
 24 27  1  0  0  0  0
 25 24  1  0  0  0  0
 27 32  1  1  0  0  0
 27 31  1  0  0  0  0
 28 27  1  0  0  0  0
 28 29  1  0  0  0  0
 29 30  1  0  0  0  0
 29 35  1  0  0  0  0
 30 37  1  0  0  0  0
 31 30  1  0  0  0  0
 33 28  1  0  0  0  0
 34 28  1  0  0  0  0
 36 29  1  0  0  0  0
 38 30  1  0  0  0  0
 39 40  1  0  0  0  0
 39 41  1  0  0  0  0
 42 39  1  0  0  0  0
 42 48  1  0  0  0  0
 43 42  2  0  0  0  0
 44 43  1  0  0  0  0
 44 45  2  0  0  0  0
 45 47  1  0  0  0  0
 46 45  1  0  0  0  0
 47 48  2  0  0  0  0
 47 51  1  0  0  0  0
 48 52  1  0  0  0  0
 49 43  1  0  0  0  0
 50 44  1  0  0  0  0
M  END
>  <MODEL>
4

>  <REMARK>
 VINA RESULT:    -6.371      3.617      5.150
 INTER + INTRA:          -9.824
 INTER:                  -9.688
 INTRA:                  -0.136
 UNBOUND:                -1.219
  Name = 
  6 active torsions:
  status: ('A' for Active; 'I' for Inactive)
    1  A    between atoms: C_2  and  C_3
    2  A    between atoms: C_3  and  C_4
    3  A    between atoms: C_4  and  C_5
    4  A    between atoms: N_10  and  C_11
    5  A    between atoms: N_14  and  C_15
    6  A    between atoms: C_15  and  C_16
                            x       y       z     vdW  Elec       q    Type
                         _______ _______ _______ _____ _____    ______ ____

>  <TORSDO>
F 6

$$$$
=
 OpenBabel07192307433D

 52 54  0  0  1  0  0  0  0  0999 V2000
    2.4730    3.8780   18.8430 C   0  0  0  0  0  0  0  0  0  0  0  0
    3.7910    3.5170   19.5330 C   0  0  0  0  0  0  0  0  0  0  0  0
    4.9940    4.0600   18.7720 C   0  0  0  0  0  0  0  0  0  0  0  0
    4.9830    3.5690   17.3460 N   0  0  0  0  0  4  0  0  0  0  0  0
    3.6940    3.9280   16.6330 C   0  0  0  0  0  0  0  0  0  0  0  0
    2.5170    3.3570   17.4020 C   0  0  0  0  0  0  0  0  0  0  0  0
    1.6440    3.3910   19.3710 H   0  0  0  0  0  0  0  0  0  0  0  0
    3.8060    3.9070   20.5570 H   0  0  0  0  0  0  0  0  0  0  0  0
    3.8740    2.4250   19.6070 H   0  0  0  0  0  0  0  0  0  0  0  0
    5.9220    3.7050   19.2320 H   0  0  0  0  0  0  0  0  0  0  0  0
    5.0040    5.1560   18.7480 H   0  0  0  0  0  0  0  0  0  0  0  0
    5.0450    2.5440   17.3600 H   0  0  0  0  0  0  0  0  0  0  0  0
    3.7310    3.4850   15.6340 H   0  0  0  0  0  0  0  0  0  0  0  0
    3.6500    5.0190   16.5470 H   0  0  0  0  0  0  0  0  0  0  0  0
    1.5950    3.5710   16.8580 H   0  0  0  0  0  0  0  0  0  0  0  0
    2.6010    2.2620   17.4250 H   0  0  0  0  0  0  0  0  0  0  0  0
    1.6350    5.3070   21.1720 O   0  0  0  0  0  0  0  0  0  0  0  0
    1.9380    5.9230   20.1590 C   0  0  0  0  0  0  0  0  0  0  0  0
    2.2390    5.3170   18.9510 N   0  0  0  0  0  0  0  0  0  0  0  0
    2.8300    5.9210   18.3700 H   0  0  0  0  0  0  0  0  0  0  0  0
    2.0120    7.4330   20.1140 C   0  0  0  0  0  0  0  0  0  0  0  0
    1.6490    7.7630   19.1320 H   0  0  0  0  0  0  0  0  0  0  0  0
    3.0620    7.7420   20.1670 H   0  0  0  0  0  0  0  0  0  0  0  0
    1.2000    8.1100   21.2180 C   0  0  0  0  0  0  0  0  0  0  0  0
    0.5520    7.3380   21.6520 H   0  0  0  0  0  0  0  0  0  0  0  0
    1.8680    8.4440   22.0220 H   0  0  0  0  0  0  0  0  0  0  0  0
    0.3490    9.2970   20.7620 C   0  0  2  0  0  0  0  0  0  0  0  0
    0.6040    9.7070   19.3180 C   0  0  0  0  0  0  0  0  0  0  0  0
    0.3130   11.1870   19.3570 C   0  0  0  0  0  0  0  0  0  0  0  0
    0.8710   11.5690   20.7080 C   0  0  0  0  0  0  0  0  0  0  0  0
    0.6000   10.4590   21.5850 O   0  0  0  0  0  0  0  0  0  0  0  0
   -0.7140    9.0580   20.8870 H   0  0  0  0  0  0  0  0  0  0  0  0
   -0.0220    9.1610   18.6050 H   0  0  0  0  0  0  0  0  0  0  0  0
    1.6530    9.5480   19.0380 H   0  0  0  0  0  0  0  0  0  0  0  0
   -0.7710   11.3540   19.3370 H   0  0  0  0  0  0  0  0  0  0  0  0
    0.7660   11.7440   18.5330 H   0  0  0  0  0  0  0  0  0  0  0  0
    0.4190   12.4780   21.1150 H   0  0  0  0  0  0  0  0  0  0  0  0
    1.9590   11.7010   20.6670 H   0  0  0  0  0  0  0  0  0  0  0  0
    6.2080    4.0530   16.5960 C   0  0  0  0  0  0  0  0  0  0  0  0
    6.9030    3.2090   16.5220 H   0  0  0  0  0  0  0  0  0  0  0  0
    5.8880    4.3140   15.5800 H   0  0  0  0  0  0  0  0  0  0  0  0
    6.8520    5.2590   17.2270 C   0  0  0  0  0  0  0  0  0  0  0  0
    7.6750    5.1180   18.3570 C   0  0  0  0  0  0  0  0  0  0  0  0
    8.2870    6.2360   18.9270 C   0  0  0  0  0  0  0  0  0  0  0  0
    8.0850    7.4920   18.3690 C   0  0  0  0  0  0  0  0  0  0  0  0
    8.6780    8.5600   18.9150 F   0  0  0  0  0  0  0  0  0  0  0  0
    7.2700    7.6540   17.2560 C   0  0  0  0  0  0  0  0  0  0  0  0
    6.6510    6.5400   16.6850 C   0  0  0  0  0  0  0  0  0  0  0  0
    7.8410    4.1470   18.8190 H   0  0  0  0  0  0  0  0  0  0  0  0
    8.9230    6.1420   19.8060 H   0  0  0  0  0  0  0  0  0  0  0  0
    7.1230    8.6480   16.8440 H   0  0  0  0  0  0  0  0  0  0  0  0
    6.0080    6.6930   15.8190 H   0  0  0  0  0  0  0  0  0  0  0  0
  1 19  1  0  0  0  0
  1  7  1  0  0  0  0
  1  2  1  0  0  0  0
  2  9  1  0  0  0  0
  2  8  1  0  0  0  0
  3 10  1  0  0  0  0
  3  2  1  0  0  0  0
  4 12  1  0  0  0  0
  4  3  1  0  0  0  0
  5  4  1  0  0  0  0
  5  6  1  0  0  0  0
  6 16  1  0  0  0  0
  6  1  1  0  0  0  0
 11  3  1  0  0  0  0
 13  5  1  0  0  0  0
 14  5  1  0  0  0  0
 15  6  1  0  0  0  0
 18 17  2  0  0  0  0
 19 18  1  0  0  0  0
 20 19  1  0  0  0  0
 21 18  1  0  0  0  0
 21 23  1  0  0  0  0
 21 24  1  0  0  0  0
 22 21  1  0  0  0  0
 24 25  1  0  0  0  0
 24 26  1  0  0  0  0
 27 32  1  1  0  0  0
 27 24  1  0  0  0  0
 27 31  1  0  0  0  0
 28 29  1  0  0  0  0
 28 27  1  0  0  0  0
 29 30  1  0  0  0  0
 30 37  1  0  0  0  0
 30 31  1  0  0  0  0
 33 28  1  0  0  0  0
 34 28  1  0  0  0  0
 35 29  1  0  0  0  0
 36 29  1  0  0  0  0
 38 30  1  0  0  0  0
 39 42  1  0  0  0  0
 39  4  1  0  0  0  0
 40 39  1  0  0  0  0
 41 39  1  0  0  0  0
 42 43  1  0  0  0  0
 43 49  1  0  0  0  0
 43 44  2  0  0  0  0
 44 50  1  0  0  0  0
 45 46  1  0  0  0  0
 45 44  1  0  0  0  0
 47 45  2  0  0  0  0
 48 42  2  0  0  0  0
 48 47  1  0  0  0  0
 51 47  1  0  0  0  0
 52 48  1  0  0  0  0
M  END
>  <MODEL>
5

>  <REMARK>
 VINA RESULT:    -6.322      4.215      6.927
 INTER + INTRA:          -9.758
 INTER:                  -9.603
 INTRA:                  -0.155
 UNBOUND:                -1.219
  Name = 
  6 active torsions:
  status: ('A' for Active; 'I' for Inactive)
    1  A    between atoms: C_2  and  C_3
    2  A    between atoms: C_3  and  C_4
    3  A    between atoms: C_4  and  C_5
    4  A    between atoms: N_10  and  C_11
    5  A    between atoms: N_14  and  C_15
    6  A    between atoms: C_15  and  C_16
                            x       y       z     vdW  Elec       q    Type
                         _______ _______ _______ _____ _____    ______ ____

>  <TORSDO>
F 6

$$$$
=
 OpenBabel07192307433D

 52 54  0  0  1  0  0  0  0  0999 V2000
    2.4210    3.7840   18.8450 C   0  0  0  0  0  0  0  0  0  0  0  0
    3.7420    3.4120   19.5240 C   0  0  0  0  0  0  0  0  0  0  0  0
    4.9440    3.9190   18.7390 C   0  0  0  0  0  0  0  0  0  0  0  0
    4.9050    3.4030   17.3220 N   0  0  0  0  0  4  0  0  0  0  0  0
    3.6150    3.7730   16.6190 C   0  0  0  0  0  0  0  0  0  0  0  0
    2.4380    3.2360   17.4130 C   0  0  0  0  0  0  0  0  0  0  0  0
    1.5910    3.3220   19.3920 H   0  0  0  0  0  0  0  0  0  0  0  0
    3.7760    3.8190   20.5410 H   0  0  0  0  0  0  0  0  0  0  0  0
    3.8060    2.3200   19.6170 H   0  0  0  0  0  0  0  0  0  0  0  0
    5.8710    3.5550   19.1940 H   0  0  0  0  0  0  0  0  0  0  0  0
    4.9730    5.0140   18.6950 H   0  0  0  0  0  0  0  0  0  0  0  0
    4.9500    2.3780   17.3540 H   0  0  0  0  0  0  0  0  0  0  0  0
    3.6310    3.3110   15.6280 H   0  0  0  0  0  0  0  0  0  0  0  0
    3.5880    4.8630   16.5140 H   0  0  0  0  0  0  0  0  0  0  0  0
    1.5120    3.4580   16.8760 H   0  0  0  0  0  0  0  0  0  0  0  0
    2.5020    2.1410   17.4540 H   0  0  0  0  0  0  0  0  0  0  0  0
    1.7070    5.2780   21.1740 O   0  0  0  0  0  0  0  0  0  0  0  0
    1.9750    5.8660   20.1350 C   0  0  0  0  0  0  0  0  0  0  0  0
    2.2140    5.2290   18.9300 N   0  0  0  0  0  0  0  0  0  0  0  0
    2.7880    5.8100   18.3100 H   0  0  0  0  0  0  0  0  0  0  0  0
    2.0710    7.3740   20.0520 C   0  0  0  0  0  0  0  0  0  0  0  0
    1.6950    7.6850   19.0690 H   0  0  0  0  0  0  0  0  0  0  0  0
    3.1260    7.6680   20.0790 H   0  0  0  0  0  0  0  0  0  0  0  0
    1.2890    8.0890   21.1530 C   0  0  0  0  0  0  0  0  0  0  0  0
    0.3570    7.5270   21.2960 H   0  0  0  0  0  0  0  0  0  0  0  0
    1.8380    8.0270   22.1020 H   0  0  0  0  0  0  0  0  0  0  0  0
    0.9640    9.5570   20.8690 C   0  0  2  0  0  0  0  0  0  0  0  0
   -0.1790   10.1000   21.7160 C   0  0  0  0  0  0  0  0  0  0  0  0
   -0.7730   11.1450   20.8050 C   0  0  0  0  0  0  0  0  0  0  0  0
   -0.6430   10.4790   19.4550 C   0  0  0  0  0  0  0  0  0  0  0  0
    0.5960    9.7460   19.4840 O   0  0  0  0  0  0  0  0  0  0  0  0
    1.8580   10.1710   21.0350 H   0  0  0  0  0  0  0  0  0  0  0  0
    0.1580   10.5030   22.6760 H   0  0  0  0  0  0  0  0  0  0  0  0
   -0.9270    9.3240   21.9190 H   0  0  0  0  0  0  0  0  0  0  0  0
   -0.1620   12.0560   20.8340 H   0  0  0  0  0  0  0  0  0  0  0  0
   -1.8030   11.4100   21.0560 H   0  0  0  0  0  0  0  0  0  0  0  0
   -0.6300   11.1930   18.6270 H   0  0  0  0  0  0  0  0  0  0  0  0
   -1.4530    9.7570   19.2890 H   0  0  0  0  0  0  0  0  0  0  0  0
    6.1300    3.8520   16.5490 C   0  0  0  0  0  0  0  0  0  0  0  0
    6.8000    2.9890   16.4660 H   0  0  0  0  0  0  0  0  0  0  0  0
    5.7980    4.1160   15.5370 H   0  0  0  0  0  0  0  0  0  0  0  0
    6.8160    5.0430   17.1620 C   0  0  0  0  0  0  0  0  0  0  0  0
    6.6410    6.3260   16.6140 C   0  0  0  0  0  0  0  0  0  0  0  0
    7.2620    7.4320   17.1980 C   0  0  0  0  0  0  0  0  0  0  0  0
    8.0530    7.2620   18.3270 C   0  0  0  0  0  0  0  0  0  0  0  0
    8.6420    8.3250   18.8870 F   0  0  0  0  0  0  0  0  0  0  0  0
    8.2440    6.0020   18.8800 C   0  0  0  0  0  0  0  0  0  0  0  0
    7.6290    4.8910   18.2980 C   0  0  0  0  0  0  0  0  0  0  0  0
    6.0350    6.4830   15.7250 H   0  0  0  0  0  0  0  0  0  0  0  0
    7.1390    8.4300   16.7810 H   0  0  0  0  0  0  0  0  0  0  0  0
    8.8730    5.8960   19.7590 H   0  0  0  0  0  0  0  0  0  0  0  0
    7.8030    3.9120   18.7410 H   0  0  0  0  0  0  0  0  0  0  0  0
  1 19  1  0  0  0  0
  1  7  1  0  0  0  0
  1  2  1  0  0  0  0
  2  9  1  0  0  0  0
  2  8  1  0  0  0  0
  3 10  1  0  0  0  0
  3  2  1  0  0  0  0
  4 12  1  0  0  0  0
  4  3  1  0  0  0  0
  5  4  1  0  0  0  0
  5  6  1  0  0  0  0
  6 16  1  0  0  0  0
  6  1  1  0  0  0  0
 11  3  1  0  0  0  0
 13  5  1  0  0  0  0
 14  5  1  0  0  0  0
 15  6  1  0  0  0  0
 18 17  2  0  0  0  0
 19 18  1  0  0  0  0
 20 19  1  0  0  0  0
 21 23  1  0  0  0  0
 21 18  1  0  0  0  0
 21 24  1  0  0  0  0
 22 21  1  0  0  0  0
 24 25  1  0  0  0  0
 24 26  1  0  0  0  0
 27 32  1  1  0  0  0
 27 24  1  0  0  0  0
 27 28  1  0  0  0  0
 28 34  1  0  0  0  0
 28 33  1  0  0  0  0
 29 35  1  0  0  0  0
 29 36  1  0  0  0  0
 29 28  1  0  0  0  0
 30 31  1  0  0  0  0
 30 29  1  0  0  0  0
 31 27  1  0  0  0  0
 37 30  1  0  0  0  0
 38 30  1  0  0  0  0
 39 42  1  0  0  0  0
 39  4  1  0  0  0  0
 40 39  1  0  0  0  0
 41 39  1  0  0  0  0
 42 48  1  0  0  0  0
 43 42  2  0  0  0  0
 43 44  1  0  0  0  0
 44 45  2  0  0  0  0
 45 47  1  0  0  0  0
 45 46  1  0  0  0  0
 47 51  1  0  0  0  0
 48 52  1  0  0  0  0
 48 47  2  0  0  0  0
 49 43  1  0  0  0  0
 50 44  1  0  0  0  0
M  END
>  <MODEL>
6

>  <REMARK>
 VINA RESULT:    -6.285      4.185      7.008
 INTER + INTRA:          -9.708
 INTER:                  -9.652
 INTRA:                  -0.057
 UNBOUND:                -1.219
  Name = 
  6 active torsions:
  status: ('A' for Active; 'I' for Inactive)
    1  A    between atoms: C_2  and  C_3
    2  A    between atoms: C_3  and  C_4
    3  A    between atoms: C_4  and  C_5
    4  A    between atoms: N_10  and  C_11
    5  A    between atoms: N_14  and  C_15
    6  A    between atoms: C_15  and  C_16
                            x       y       z     vdW  Elec       q    Type
                         _______ _______ _______ _____ _____    ______ ____

>  <TORSDO>
F 6

$$$$
=
 OpenBabel07192307433D

 52 54  0  0  1  0  0  0  0  0999 V2000
    2.6890    5.5710   19.1890 C   0  0  0  0  0  0  0  0  0  0  0  0
    2.2180    6.4300   18.0120 C   0  0  0  0  0  0  0  0  0  0  0  0
    2.3120    7.9180   18.3260 C   0  0  0  0  0  0  0  0  0  0  0  0
    1.5310    8.2440   19.5740 N   0  0  0  0  0  4  0  0  0  0  0  0
    1.9880    7.4190   20.7610 C   0  0  0  0  0  0  0  0  0  0  0  0
    1.8640    5.9440   20.4260 C   0  0  0  0  0  0  0  0  0  0  0  0
    2.5180    4.5130   18.9540 H   0  0  0  0  0  0  0  0  0  0  0  0
    2.8130    6.2120   17.1180 H   0  0  0  0  0  0  0  0  0  0  0  0
    1.1780    6.1770   17.7710 H   0  0  0  0  0  0  0  0  0  0  0  0
    1.8790    8.5030   17.5080 H   0  0  0  0  0  0  0  0  0  0  0  0
    3.3480    8.2390   18.4860 H   0  0  0  0  0  0  0  0  0  0  0  0
    0.5450    8.0110   19.4050 H   0  0  0  0  0  0  0  0  0  0  0  0
    1.3370    7.6610   21.6050 H   0  0  0  0  0  0  0  0  0  0  0  0
    3.0170    7.7100   20.9970 H   0  0  0  0  0  0  0  0  0  0  0  0
    2.1430    5.3520   21.3010 H   0  0  0  0  0  0  0  0  0  0  0  0
    0.8090    5.7080   20.2320 H   0  0  0  0  0  0  0  0  0  0  0  0
    4.6740    3.5340   18.9100 O   0  0  0  0  0  0  0  0  0  0  0  0
    5.0170    4.6930   19.0990 C   0  0  0  0  0  0  0  0  0  0  0  0
    4.1320    5.7240   19.3640 N   0  0  0  0  0  0  0  0  0  0  0  0
    4.5310    6.6320   19.1020 H   0  0  0  0  0  0  0  0  0  0  0  0
    6.4650    5.1310   19.0680 C   0  0  0  0  0  0  0  0  0  0  0  0
    7.0780    4.2610   18.8020 H   0  0  0  0  0  0  0  0  0  0  0  0
    6.7730    5.4200   20.0800 H   0  0  0  0  0  0  0  0  0  0  0  0
    6.7290    6.2690   18.0840 C   0  0  0  0  0  0  0  0  0  0  0  0
    5.9210    7.0000   18.2200 H   0  0  0  0  0  0  0  0  0  0  0  0
    7.6620    6.7840   18.3480 H   0  0  0  0  0  0  0  0  0  0  0  0
    6.8000    5.8510   16.6130 C   0  0  2  0  0  0  0  0  0  0  0  0
    5.4820    6.0200   15.8710 C   0  0  0  0  0  0  0  0  0  0  0  0
    5.5650    4.9270   14.8340 C   0  0  0  0  0  0  0  0  0  0  0  0
    6.2370    3.8220   15.6140 C   0  0  0  0  0  0  0  0  0  0  0  0
    7.1850    4.4630   16.4890 O   0  0  0  0  0  0  0  0  0  0  0  0
    7.5790    6.4310   16.1030 H   0  0  0  0  0  0  0  0  0  0  0  0
    5.3630    7.0190   15.4390 H   0  0  0  0  0  0  0  0  0  0  0  0
    4.6260    5.8340   16.5310 H   0  0  0  0  0  0  0  0  0  0  0  0
    6.2080    5.2470   14.0060 H   0  0  0  0  0  0  0  0  0  0  0  0
    4.5940    4.6360   14.4270 H   0  0  0  0  0  0  0  0  0  0  0  0
    6.7560    3.1020   14.9740 H   0  0  0  0  0  0  0  0  0  0  0  0
    5.5170    3.2830   16.2430 H   0  0  0  0  0  0  0  0  0  0  0  0
    1.5660    9.7320   19.8620 C   0  0  0  0  0  0  0  0  0  0  0  0
    2.5840    9.9810   20.1830 H   0  0  0  0  0  0  0  0  0  0  0  0
    1.3770   10.2530   18.9150 H   0  0  0  0  0  0  0  0  0  0  0  0
    0.5350   10.1660   20.8690 C   0  0  0  0  0  0  0  0  0  0  0  0
    0.4970    9.5810   22.1470 C   0  0  0  0  0  0  0  0  0  0  0  0
   -0.4480   10.0010   23.0860 C   0  0  0  0  0  0  0  0  0  0  0  0
   -1.3490   11.0050   22.7550 C   0  0  0  0  0  0  0  0  0  0  0  0
   -2.2490   11.4080   23.6600 F   0  0  0  0  0  0  0  0  0  0  0  0
   -1.3320   11.5920   21.4970 C   0  0  0  0  0  0  0  0  0  0  0  0
   -0.3930   11.1730   20.5520 C   0  0  0  0  0  0  0  0  0  0  0  0
    1.1850    8.7860   22.4260 H   0  0  0  0  0  0  0  0  0  0  0  0
   -0.4920    9.5530   24.0770 H   0  0  0  0  0  0  0  0  0  0  0  0
   -2.0530   12.3690   21.2610 H   0  0  0  0  0  0  0  0  0  0  0  0
   -0.4060   11.6390   19.5670 H   0  0  0  0  0  0  0  0  0  0  0  0
  1 19  1  0  0  0  0
  1  6  1  0  0  0  0
  2  3  1  0  0  0  0
  2  1  1  0  0  0  0
  3 11  1  0  0  0  0
  3  4  1  0  0  0  0
  4 39  1  0  0  0  0
  4  5  1  0  0  0  0
  5 14  1  0  0  0  0
  5 13  1  0  0  0  0
  6  5  1  0  0  0  0
  6 15  1  0  0  0  0
  7  1  1  0  0  0  0
  8  2  1  0  0  0  0
  9  2  1  0  0  0  0
 10  3  1  0  0  0  0
 12  4  1  0  0  0  0
 16  6  1  0  0  0  0
 17 18  2  0  0  0  0
 18 19  1  0  0  0  0
 20 19  1  0  0  0  0
 21 18  1  0  0  0  0
 21 23  1  0  0  0  0
 22 21  1  0  0  0  0
 24 25  1  0  0  0  0
 24 26  1  0  0  0  0
 24 21  1  0  0  0  0
 27 32  1  6  0  0  0
 27 24  1  0  0  0  0
 28 34  1  0  0  0  0
 28 27  1  0  0  0  0
 29 30  1  0  0  0  0
 29 28  1  0  0  0  0
 30 38  1  0  0  0  0
 30 31  1  0  0  0  0
 31 27  1  0  0  0  0
 33 28  1  0  0  0  0
 35 29  1  0  0  0  0
 36 29  1  0  0  0  0
 37 30  1  0  0  0  0
 39 40  1  0  0  0  0
 39 42  1  0  0  0  0
 41 39  1  0  0  0  0
 42 43  1  0  0  0  0
 43 49  1  0  0  0  0
 43 44  2  0  0  0  0
 44 50  1  0  0  0  0
 45 44  1  0  0  0  0
 45 46  1  0  0  0  0
 47 45  2  0  0  0  0
 48 42  2  0  0  0  0
 48 47  1  0  0  0  0
 51 47  1  0  0  0  0
 52 48  1  0  0  0  0
M  END
>  <MODEL>
7

>  <REMARK>
 VINA RESULT:    -6.279      4.525      6.832
 INTER + INTRA:          -9.700
 INTER:                  -9.265
 INTRA:                  -0.435
 UNBOUND:                -1.219
  Name = 
  6 active torsions:
  status: ('A' for Active; 'I' for Inactive)
    1  A    between atoms: C_2  and  C_3
    2  A    between atoms: C_3  and  C_4
    3  A    between atoms: C_4  and  C_5
    4  A    between atoms: N_10  and  C_11
    5  A    between atoms: N_14  and  C_15
    6  A    between atoms: C_15  and  C_16
                            x       y       z     vdW  Elec       q    Type
                         _______ _______ _______ _____ _____    ______ ____

>  <TORSDO>
F 6

$$$$
=
 OpenBabel07192307433D

 52 54  0  0  1  0  0  0  0  0999 V2000
    5.7200    4.4770   18.5190 C   0  0  0  0  0  0  0  0  0  0  0  0
    4.9370    5.2730   19.5660 C   0  0  0  0  0  0  0  0  0  0  0  0
    3.7220    5.9630   18.9590 C   0  0  0  0  0  0  0  0  0  0  0  0
    4.1370    6.8490   17.8110 N   0  0  0  0  0  4  0  0  0  0  0  0
    4.9010    6.0830   16.7500 C   0  0  0  0  0  0  0  0  0  0  0  0
    6.1150    5.4250   17.3800 C   0  0  0  0  0  0  0  0  0  0  0  0
    6.6320    4.0760   18.9790 H   0  0  0  0  0  0  0  0  0  0  0  0
    4.6090    4.6160   20.3790 H   0  0  0  0  0  0  0  0  0  0  0  0
    5.5940    6.0290   20.0140 H   0  0  0  0  0  0  0  0  0  0  0  0
    3.2390    6.6020   19.7050 H   0  0  0  0  0  0  0  0  0  0  0  0
    2.9890    5.2430   18.5760 H   0  0  0  0  0  0  0  0  0  0  0  0
    4.7700    7.5710   18.1770 H   0  0  0  0  0  0  0  0  0  0  0  0
    5.2240    6.7980   15.9890 H   0  0  0  0  0  0  0  0  0  0  0  0
    4.2160    5.3560   16.3000 H   0  0  0  0  0  0  0  0  0  0  0  0
    6.6930    4.9170   16.6040 H   0  0  0  0  0  0  0  0  0  0  0  0
    6.7770    6.2030   17.7820 H   0  0  0  0  0  0  0  0  0  0  0  0
    4.8540    2.2950   20.1480 O   0  0  0  0  0  0  0  0  0  0  0  0
    4.4760    2.3720   18.9870 C   0  0  0  0  0  0  0  0  0  0  0  0
    4.9350    3.3220   18.0900 N   0  0  0  0  0  0  0  0  0  0  0  0
    4.2530    3.4840   17.3410 H   0  0  0  0  0  0  0  0  0  0  0  0
    3.4560    1.4230   18.3960 C   0  0  0  0  0  0  0  0  0  0  0  0
    3.1380    0.7310   19.1840 H   0  0  0  0  0  0  0  0  0  0  0  0
    3.9420    0.8070   17.6300 H   0  0  0  0  0  0  0  0  0  0  0  0
    2.2370    2.1360   17.8130 C   0  0  0  0  0  0  0  0  0  0  0  0
    2.6150    2.9850   17.2280 H   0  0  0  0  0  0  0  0  0  0  0  0
    1.7200    1.4760   17.1050 H   0  0  0  0  0  0  0  0  0  0  0  0
    1.2230    2.6370   18.8450 C   0  0  2  0  0  0  0  0  0  0  0  0
    1.2450    4.1470   19.0330 C   0  0  0  0  0  0  0  0  0  0  0  0
    0.8220    4.2890   20.4740 C   0  0  0  0  0  0  0  0  0  0  0  0
    1.5150    3.1070   21.1090 C   0  0  0  0  0  0  0  0  0  0  0  0
    1.4700    2.0430   20.1400 O   0  0  0  0  0  0  0  0  0  0  0  0
    0.2140    2.3230   18.5520 H   0  0  0  0  0  0  0  0  0  0  0  0
    0.5840    4.6700   18.3340 H   0  0  0  0  0  0  0  0  0  0  0  0
    2.2570    4.5500   18.9070 H   0  0  0  0  0  0  0  0  0  0  0  0
   -0.2660    4.1760   20.5560 H   0  0  0  0  0  0  0  0  0  0  0  0
    1.1060    5.2440   20.9210 H   0  0  0  0  0  0  0  0  0  0  0  0
    1.0360    2.7800   22.0370 H   0  0  0  0  0  0  0  0  0  0  0  0
    2.5700    3.3260   21.3130 H   0  0  0  0  0  0  0  0  0  0  0  0
    2.9440    7.5890   17.2370 C   0  0  0  0  0  0  0  0  0  0  0  0
    3.3170    8.2530   16.4500 H   0  0  0  0  0  0  0  0  0  0  0  0
    2.2930    6.8430   16.7660 H   0  0  0  0  0  0  0  0  0  0  0  0
    2.1530    8.3350   18.2780 C   0  0  0  0  0  0  0  0  0  0  0  0
    1.5210    9.5490   17.9570 C   0  0  0  0  0  0  0  0  0  0  0  0
    0.7710   10.2290   18.9190 C   0  0  0  0  0  0  0  0  0  0  0  0
    0.6460    9.6980   20.1960 C   0  0  0  0  0  0  0  0  0  0  0  0
   -0.0790   10.3500   21.1130 F   0  0  0  0  0  0  0  0  0  0  0  0
    1.2670    8.5030   20.5360 C   0  0  0  0  0  0  0  0  0  0  0  0
    2.0230    7.8220   19.5800 C   0  0  0  0  0  0  0  0  0  0  0  0
    1.6130    9.9900   16.9670 H   0  0  0  0  0  0  0  0  0  0  0  0
    0.2810   11.1720   18.6850 H   0  0  0  0  0  0  0  0  0  0  0  0
    1.1590    8.1140   21.5450 H   0  0  0  0  0  0  0  0  0  0  0  0
    2.5110    6.8930   19.8720 H   0  0  0  0  0  0  0  0  0  0  0  0
  1  7  1  0  0  0  0
  1  2  1  0  0  0  0
  2  9  1  0  0  0  0
  2  8  1  0  0  0  0
  3  2  1  0  0  0  0
  3 10  1  0  0  0  0
  4 12  1  0  0  0  0
  4  3  1  0  0  0  0
  5  6  1  0  0  0  0
  5  4  1  0  0  0  0
  6 16  1  0  0  0  0
  6  1  1  0  0  0  0
 11  3  1  0  0  0  0
 13  5  1  0  0  0  0
 14  5  1  0  0  0  0
 15  6  1  0  0  0  0
 18 17  2  0  0  0  0
 19  1  1  0  0  0  0
 19 18  1  0  0  0  0
 20 19  1  0  0  0  0
 21 18  1  0  0  0  0
 21 22  1  0  0  0  0
 23 21  1  0  0  0  0
 24 21  1  0  0  0  0
 24 27  1  0  0  0  0
 25 24  1  0  0  0  0
 26 24  1  0  0  0  0
 27 32  1  6  0  0  0
 27 28  1  0  0  0  0
 27 31  1  0  0  0  0
 28 29  1  0  0  0  0
 29 35  1  0  0  0  0
 29 36  1  0  0  0  0
 29 30  1  0  0  0  0
 30 38  1  0  0  0  0
 30 37  1  0  0  0  0
 31 30  1  0  0  0  0
 33 28  1  0  0  0  0
 34 28  1  0  0  0  0
 39  4  1  0  0  0  0
 39 42  1  0  0  0  0
 40 39  1  0  0  0  0
 41 39  1  0  0  0  0
 42 48  1  0  0  0  0
 43 42  2  0  0  0  0
 43 44  1  0  0  0  0
 44 45  2  0  0  0  0
 45 47  1  0  0  0  0
 45 46  1  0  0  0  0
 47 51  1  0  0  0  0
 48 52  1  0  0  0  0
 48 47  2  0  0  0  0
 49 43  1  0  0  0  0
 50 44  1  0  0  0  0
M  END
>  <MODEL>
8

>  <REMARK>
 VINA RESULT:    -6.190      4.720      7.460
 INTER + INTRA:          -9.580
 INTER:                  -9.894
 INTRA:                   0.314
 UNBOUND:                -1.219
  Name = 
  6 active torsions:
  status: ('A' for Active; 'I' for Inactive)
    1  A    between atoms: C_2  and  C_3
    2  A    between atoms: C_3  and  C_4
    3  A    between atoms: C_4  and  C_5
    4  A    between atoms: N_10  and  C_11
    5  A    between atoms: N_14  and  C_15
    6  A    between atoms: C_15  and  C_16
                            x       y       z     vdW  Elec       q    Type
                         _______ _______ _______ _____ _____    ______ ____

>  <TORSDO>
F 6

$$$$
=
 OpenBabel07192307433D

 52 54  0  0  1  0  0  0  0  0999 V2000
    3.7470    6.3310   18.1010 C   0  0  0  0  0  0  0  0  0  0  0  0
    3.7050    6.4620   19.6260 C   0  0  0  0  0  0  0  0  0  0  0  0
    2.3460    6.9470   20.1140 C   0  0  0  0  0  0  0  0  0  0  0  0
    1.9830    8.2540   19.4540 N   0  0  0  0  0  4  0  0  0  0  0  0
    2.0010    8.1490   17.9420 C   0  0  0  0  0  0  0  0  0  0  0  0
    3.3720    7.6850   17.4850 C   0  0  0  0  0  0  0  0  0  0  0  0
    4.7660    6.0710   17.7900 H   0  0  0  0  0  0  0  0  0  0  0  0
    3.9350    5.5000   20.0980 H   0  0  0  0  0  0  0  0  0  0  0  0
    4.4780    7.1690   19.9520 H   0  0  0  0  0  0  0  0  0  0  0  0
    2.3750    7.1250   21.1940 H   0  0  0  0  0  0  0  0  0  0  0  0
    1.5490    6.2280   19.8910 H   0  0  0  0  0  0  0  0  0  0  0  0
    2.6890    8.9520   19.7170 H   0  0  0  0  0  0  0  0  0  0  0  0
    1.7950    9.1430   17.5370 H   0  0  0  0  0  0  0  0  0  0  0  0
    1.2030    7.4610   17.6430 H   0  0  0  0  0  0  0  0  0  0  0  0
    3.3980    7.6610   16.3940 H   0  0  0  0  0  0  0  0  0  0  0  0
    4.1210    8.4290   17.7840 H   0  0  0  0  0  0  0  0  0  0  0  0
    4.5980    3.7350   17.2640 O   0  0  0  0  0  0  0  0  0  0  0  0
    3.4040    3.9690   17.3940 C   0  0  0  0  0  0  0  0  0  0  0  0
    2.8930    5.2240   17.6780 N   0  0  0  0  0  0  0  0  0  0  0  0
    1.9740    5.1570   18.1290 H   0  0  0  0  0  0  0  0  0  0  0  0
    2.3420    2.9010   17.2530 C   0  0  0  0  0  0  0  0  0  0  0  0
    2.8000    1.9330   17.4910 H   0  0  0  0  0  0  0  0  0  0  0  0
    2.0340    2.8390   16.2020 H   0  0  0  0  0  0  0  0  0  0  0  0
    1.1290    3.1340   18.1520 C   0  0  0  0  0  0  0  0  0  0  0  0
    0.9680    4.2190   18.1920 H   0  0  0  0  0  0  0  0  0  0  0  0
    0.2320    2.7030   17.6900 H   0  0  0  0  0  0  0  0  0  0  0  0
    1.2610    2.5820   19.5740 C   0  0  2  0  0  0  0  0  0  0  0  0
    1.0900    3.6420   20.6540 C   0  0  0  0  0  0  0  0  0  0  0  0
    1.9600    3.1030   21.7610 C   0  0  0  0  0  0  0  0  0  0  0  0
    3.1180    2.5250   20.9820 C   0  0  0  0  0  0  0  0  0  0  0  0
    2.5580    1.9760   19.7740 O   0  0  0  0  0  0  0  0  0  0  0  0
    0.5230    1.7860   19.7300 H   0  0  0  0  0  0  0  0  0  0  0  0
    0.0450    3.7790   20.9510 H   0  0  0  0  0  0  0  0  0  0  0  0
    1.4770    4.6140   20.3240 H   0  0  0  0  0  0  0  0  0  0  0  0
    1.4310    2.3040   22.2960 H   0  0  0  0  0  0  0  0  0  0  0  0
    2.2660    3.8610   22.4860 H   0  0  0  0  0  0  0  0  0  0  0  0
    3.6530    1.7430   21.5290 H   0  0  0  0  0  0  0  0  0  0  0  0
    3.8310    3.3060   20.6910 H   0  0  0  0  0  0  0  0  0  0  0  0
    0.6600    8.7770   19.9780 C   0  0  0  0  0  0  0  0  0  0  0  0
   -0.1100    8.0440   19.7160 H   0  0  0  0  0  0  0  0  0  0  0  0
    0.7330    8.8110   21.0720 H   0  0  0  0  0  0  0  0  0  0  0  0
    0.3240   10.1540   19.4700 C   0  0  0  0  0  0  0  0  0  0  0  0
   -0.8890   10.3900   18.8000 C   0  0  0  0  0  0  0  0  0  0  0  0
   -1.2070   11.6720   18.3480 C   0  0  0  0  0  0  0  0  0  0  0  0
   -0.3210   12.7200   18.5690 C   0  0  0  0  0  0  0  0  0  0  0  0
   -0.6320   13.9480   18.1400 F   0  0  0  0  0  0  0  0  0  0  0  0
    0.8850   12.5070   19.2240 C   0  0  0  0  0  0  0  0  0  0  0  0
    1.2110   11.2260   19.6730 C   0  0  0  0  0  0  0  0  0  0  0  0
   -1.5930    9.5840   18.6060 H   0  0  0  0  0  0  0  0  0  0  0  0
   -2.1400   11.8680   17.8230 H   0  0  0  0  0  0  0  0  0  0  0  0
    1.5630   13.3420   19.3770 H   0  0  0  0  0  0  0  0  0  0  0  0
    2.1670   11.0800   20.1740 H   0  0  0  0  0  0  0  0  0  0  0  0
  1  2  1  0  0  0  0
  2  9  1  0  0  0  0
  2  8  1  0  0  0  0
  2  3  1  0  0  0  0
  3 10  1  0  0  0  0
  4 12  1  0  0  0  0
  4 39  1  0  0  0  0
  4  3  1  0  0  0  0
  5  4  1  0  0  0  0
  6 16  1  0  0  0  0
  6  5  1  0  0  0  0
  6  1  1  0  0  0  0
  7  1  1  0  0  0  0
 11  3  1  0  0  0  0
 13  5  1  0  0  0  0
 14  5  1  0  0  0  0
 15  6  1  0  0  0  0
 17 18  2  0  0  0  0
 18 19  1  0  0  0  0
 19  1  1  0  0  0  0
 19 20  1  0  0  0  0
 21 18  1  0  0  0  0
 21 22  1  0  0  0  0
 21 24  1  0  0  0  0
 23 21  1  0  0  0  0
 24 25  1  0  0  0  0
 24 27  1  0  0  0  0
 26 24  1  0  0  0  0
 27 32  1  1  0  0  0
 27 31  1  0  0  0  0
 27 28  1  0  0  0  0
 28 33  1  0  0  0  0
 28 29  1  0  0  0  0
 29 35  1  0  0  0  0
 29 36  1  0  0  0  0
 30 37  1  0  0  0  0
 30 29  1  0  0  0  0
 31 30  1  0  0  0  0
 34 28  1  0  0  0  0
 38 30  1  0  0  0  0
 39 41  1  0  0  0  0
 40 39  1  0  0  0  0
 42 48  1  0  0  0  0
 42 39  1  0  0  0  0
 43 42  2  0  0  0  0
 44 45  2  0  0  0  0
 44 43  1  0  0  0  0
 45 47  1  0  0  0  0
 46 45  1  0  0  0  0
 47 51  1  0  0  0  0
 47 48  2  0  0  0  0
 48 52  1  0  0  0  0
 49 43  1  0  0  0  0
 50 44  1  0  0  0  0
M  END
>  <MODEL>
9

>  <REMARK>
 VINA RESULT:    -6.106      5.235      8.560
 INTER + INTRA:          -9.466
 INTER:                  -8.448
 INTRA:                  -1.018
 UNBOUND:                -1.219
  Name = 
  6 active torsions:
  status: ('A' for Active; 'I' for Inactive)
    1  A    between atoms: C_2  and  C_3
    2  A    between atoms: C_3  and  C_4
    3  A    between atoms: C_4  and  C_5
    4  A    between atoms: N_10  and  C_11
    5  A    between atoms: N_14  and  C_15
    6  A    between atoms: C_15  and  C_16
                            x       y       z     vdW  Elec       q    Type
                         _______ _______ _______ _____ _____    ______ ____

>  <TORSDO>
F 6

$$$$
=
 OpenBabel07192307433D

 52 54  0  0  1  0  0  0  0  0999 V2000
    2.8130    7.3730   18.7000 C   0  0  0  0  0  0  0  0  0  0  0  0
    2.3840    7.6420   20.1450 C   0  0  0  0  0  0  0  0  0  0  0  0
    0.9740    8.2120   20.2200 C   0  0  0  0  0  0  0  0  0  0  0  0
    0.8660    9.4640   19.3860 N   0  0  0  0  0  4  0  0  0  0  0  0
    1.2680    9.2230   17.9450 C   0  0  0  0  0  0  0  0  0  0  0  0
    2.6830    8.6760   17.9020 C   0  0  0  0  0  0  0  0  0  0  0  0
    3.8620    7.0530   18.6890 H   0  0  0  0  0  0  0  0  0  0  0  0
    2.4330    6.7200   20.7360 H   0  0  0  0  0  0  0  0  0  0  0  0
    3.0850    8.3510   20.6050 H   0  0  0  0  0  0  0  0  0  0  0  0
    0.7330    8.4860   21.2520 H   0  0  0  0  0  0  0  0  0  0  0  0
    0.2240    7.5020   19.8530 H   0  0  0  0  0  0  0  0  0  0  0  0
    1.5170   10.1610   19.7690 H   0  0  0  0  0  0  0  0  0  0  0  0
    1.2290   10.1820   17.4220 H   0  0  0  0  0  0  0  0  0  0  0  0
    0.5390    8.5360   17.5020 H   0  0  0  0  0  0  0  0  0  0  0  0
    2.9900    8.5530   16.8610 H   0  0  0  0  0  0  0  0  0  0  0  0
    3.3690    9.4200   18.3270 H   0  0  0  0  0  0  0  0  0  0  0  0
    3.8390    4.9100   17.6780 O   0  0  0  0  0  0  0  0  0  0  0  0
    2.6310    5.0640   17.7860 C   0  0  0  0  0  0  0  0  0  0  0  0
    2.0380    6.2590   18.1570 N   0  0  0  0  0  0  0  0  0  0  0  0
    1.1120    6.1020   18.5690 H   0  0  0  0  0  0  0  0  0  0  0  0
    1.6380    3.9530   17.5190 C   0  0  0  0  0  0  0  0  0  0  0  0
    1.3430    4.0070   16.4640 H   0  0  0  0  0  0  0  0  0  0  0  0
    0.7260    4.1400   18.0980 H   0  0  0  0  0  0  0  0  0  0  0  0
    2.1920    2.5630   17.8300 C   0  0  0  0  0  0  0  0  0  0  0  0
    1.6920    1.8630   17.1480 H   0  0  0  0  0  0  0  0  0  0  0  0
    3.2620    2.5240   17.5870 H   0  0  0  0  0  0  0  0  0  0  0  0
    2.0000    2.0970   19.2750 C   0  0  2  0  0  0  0  0  0  0  0  0
    0.8640    2.8090   19.9960 C   0  0  0  0  0  0  0  0  0  0  0  0
    1.3400    2.7870   21.4270 C   0  0  0  0  0  0  0  0  0  0  0  0
    2.8240    3.0090   21.2550 C   0  0  0  0  0  0  0  0  0  0  0  0
    3.2000    2.3140   20.0510 O   0  0  0  0  0  0  0  0  0  0  0  0
    1.8160    1.0160   19.2910 H   0  0  0  0  0  0  0  0  0  0  0  0
   -0.1030    2.3170   19.8530 H   0  0  0  0  0  0  0  0  0  0  0  0
    0.7670    3.8480   19.6580 H   0  0  0  0  0  0  0  0  0  0  0  0
    1.1560    1.7990   21.8660 H   0  0  0  0  0  0  0  0  0  0  0  0
    0.8630    3.5410   22.0580 H   0  0  0  0  0  0  0  0  0  0  0  0
    3.4120    2.6330   22.0970 H   0  0  0  0  0  0  0  0  0  0  0  0
    3.0530    4.0720   21.1100 H   0  0  0  0  0  0  0  0  0  0  0  0
   -0.5170   10.0750   19.5010 C   0  0  0  0  0  0  0  0  0  0  0  0
   -0.7500   10.5450   18.5390 H   0  0  0  0  0  0  0  0  0  0  0  0
   -1.2260    9.2520   19.6530 H   0  0  0  0  0  0  0  0  0  0  0  0
   -0.6440   11.0440   20.6470 C   0  0  0  0  0  0  0  0  0  0  0  0
   -0.4810   12.4240   20.4350 C   0  0  0  0  0  0  0  0  0  0  0  0
   -0.6200   13.3210   21.4960 C   0  0  0  0  0  0  0  0  0  0  0  0
   -0.9260   12.8450   22.7650 C   0  0  0  0  0  0  0  0  0  0  0  0
   -1.0640   13.7090   23.7770 F   0  0  0  0  0  0  0  0  0  0  0  0
   -1.0850   11.4850   22.9970 C   0  0  0  0  0  0  0  0  0  0  0  0
   -0.9420   10.5830   21.9410 C   0  0  0  0  0  0  0  0  0  0  0  0
   -0.2310   12.8190   19.4530 H   0  0  0  0  0  0  0  0  0  0  0  0
   -0.4920   14.3910   21.3470 H   0  0  0  0  0  0  0  0  0  0  0  0
   -1.3160   11.1390   24.0010 H   0  0  0  0  0  0  0  0  0  0  0  0
   -1.0590    9.5200   22.1490 H   0  0  0  0  0  0  0  0  0  0  0  0
  1  2  1  0  0  0  0
  2  3  1  0  0  0  0
  2  9  1  0  0  0  0
  2  8  1  0  0  0  0
  3 10  1  0  0  0  0
  4 39  1  0  0  0  0
  4 12  1  0  0  0  0
  4  3  1  0  0  0  0
  5  4  1  0  0  0  0
  6  5  1  0  0  0  0
  6 16  1  0  0  0  0
  6  1  1  0  0  0  0
  7  1  1  0  0  0  0
 11  3  1  0  0  0  0
 13  5  1  0  0  0  0
 14  5  1  0  0  0  0
 15  6  1  0  0  0  0
 17 18  2  0  0  0  0
 18 19  1  0  0  0  0
 19 20  1  0  0  0  0
 19  1  1  0  0  0  0
 21 18  1  0  0  0  0
 21 24  1  0  0  0  0
 21 23  1  0  0  0  0
 22 21  1  0  0  0  0
 24 27  1  0  0  0  0
 25 24  1  0  0  0  0
 26 24  1  0  0  0  0
 27 32  1  6  0  0  0
 27 28  1  0  0  0  0
 27 31  1  0  0  0  0
 28 29  1  0  0  0  0
 29 35  1  0  0  0  0
 29 36  1  0  0  0  0
 30 29  1  0  0  0  0
 30 37  1  0  0  0  0
 31 30  1  0  0  0  0
 33 28  1  0  0  0  0
 34 28  1  0  0  0  0
 38 30  1  0  0  0  0
 39 41  1  0  0  0  0
 39 42  1  0  0  0  0
 40 39  1  0  0  0  0
 42 48  1  0  0  0  0
 43 42  2  0  0  0  0
 43 44  1  0  0  0  0
 44 45  2  0  0  0  0
 45 47  1  0  0  0  0
 45 46  1  0  0  0  0
 47 51  1  0  0  0  0
 48 52  1  0  0  0  0
 48 47  2  0  0  0  0
 49 43  1  0  0  0  0
 50 44  1  0  0  0  0
M  END
>  <MODEL>
10

>  <REMARK>
 VINA RESULT:    -6.023      5.602      8.964
 INTER + INTRA:          -9.354
 INTER:                  -8.561
 INTRA:                  -0.793
 UNBOUND:                -1.219
  Name = 
  6 active torsions:
  status: ('A' for Active; 'I' for Inactive)
    1  A    between atoms: C_2  and  C_3
    2  A    between atoms: C_3  and  C_4
    3  A    between atoms: C_4  and  C_5
    4  A    between atoms: N_10  and  C_11
    5  A    between atoms: N_14  and  C_15
    6  A    between atoms: C_15  and  C_16
                            x       y       z     vdW  Elec       q    Type
                         _______ _______ _______ _____ _____    ______ ____

>  <TORSDO>
F 6

$$$$
=
 OpenBabel07192307433D

 52 54  0  0  1  0  0  0  0  0999 V2000
    5.0640    5.9350   18.6170 C   0  0  0  0  0  0  0  0  0  0  0  0
    5.1470    6.9590   17.4820 C   0  0  0  0  0  0  0  0  0  0  0  0
    5.8370    6.3850   16.2510 C   0  0  0  0  0  0  0  0  0  0  0  0
    7.2090    5.8680   16.6080 N   0  0  0  0  0  4  0  0  0  0  0  0
    7.1560    4.8390   17.7190 C   0  0  0  0  0  0  0  0  0  0  0  0
    6.4820    5.4460   18.9370 C   0  0  0  0  0  0  0  0  0  0  0  0
    4.6460    6.4180   19.5080 H   0  0  0  0  0  0  0  0  0  0  0  0
    4.1440    7.3040   17.2050 H   0  0  0  0  0  0  0  0  0  0  0  0
    5.7010    7.8410   17.8280 H   0  0  0  0  0  0  0  0  0  0  0  0
    5.9690    7.1660   15.4950 H   0  0  0  0  0  0  0  0  0  0  0  0
    5.2710    5.5550   15.8130 H   0  0  0  0  0  0  0  0  0  0  0  0
    7.7680    6.6580   16.9540 H   0  0  0  0  0  0  0  0  0  0  0  0
    8.1840    4.5630   17.9670 H   0  0  0  0  0  0  0  0  0  0  0  0
    6.6220    3.9610   17.3390 H   0  0  0  0  0  0  0  0  0  0  0  0
    6.4930    4.7200   19.7530 H   0  0  0  0  0  0  0  0  0  0  0  0
    7.0790    6.2980   19.2890 H   0  0  0  0  0  0  0  0  0  0  0  0
    2.2280    6.1580   18.3490 O   0  0  0  0  0  0  0  0  0  0  0  0
    2.7860    5.1120   18.0450 C   0  0  0  0  0  0  0  0  0  0  0  0
    4.1330    4.8700   18.2520 N   0  0  0  0  0  0  0  0  0  0  0  0
    4.4850    4.1560   17.6050 H   0  0  0  0  0  0  0  0  0  0  0  0
    2.0530    3.9530   17.4060 C   0  0  0  0  0  0  0  0  0  0  0  0
    2.1040    4.0770   16.3170 H   0  0  0  0  0  0  0  0  0  0  0  0
    0.9900    4.0120   17.6680 H   0  0  0  0  0  0  0  0  0  0  0  0
    2.6240    2.5900   17.7970 C   0  0  0  0  0  0  0  0  0  0  0  0
    2.2660    1.8700   17.0500 H   0  0  0  0  0  0  0  0  0  0  0  0
    3.7180    2.6050   17.7160 H   0  0  0  0  0  0  0  0  0  0  0  0
    2.2430    2.1070   19.1990 C   0  0  2  0  0  0  0  0  0  0  0  0
    0.9680    2.7430   19.7350 C   0  0  0  0  0  0  0  0  0  0  0  0
    1.2210    2.7450   21.2220 C   0  0  0  0  0  0  0  0  0  0  0  0
    2.6970    3.0610   21.2770 C   0  0  0  0  0  0  0  0  0  0  0  0
    3.2950    2.3960   20.1480 O   0  0  0  0  0  0  0  0  0  0  0  0
    2.1280    1.0160   19.1930 H   0  0  0  0  0  0  0  0  0  0  0  0
    0.0670    2.1910   19.4490 H   0  0  0  0  0  0  0  0  0  0  0  0
    0.8580    3.7750   19.3800 H   0  0  0  0  0  0  0  0  0  0  0  0
    1.0350    1.7450   21.6330 H   0  0  0  0  0  0  0  0  0  0  0  0
    0.6070    3.4650   21.7680 H   0  0  0  0  0  0  0  0  0  0  0  0
    3.1720    2.7190   22.2010 H   0  0  0  0  0  0  0  0  0  0  0  0
    2.8780    4.1370   21.1620 H   0  0  0  0  0  0  0  0  0  0  0  0
    7.9300    5.3500   15.3800 C   0  0  0  0  0  0  0  0  0  0  0  0
    8.4320    6.2030   14.9100 H   0  0  0  0  0  0  0  0  0  0  0  0
    8.7040    4.6540   15.7240 H   0  0  0  0  0  0  0  0  0  0  0  0
    7.0220    4.6310   14.4180 C   0  0  0  0  0  0  0  0  0  0  0  0
    5.8610    3.9880   14.8800 C   0  0  0  0  0  0  0  0  0  0  0  0
    5.0100    3.3390   13.9830 C   0  0  0  0  0  0  0  0  0  0  0  0
    5.3130    3.3340   12.6270 C   0  0  0  0  0  0  0  0  0  0  0  0
    4.4930    2.7160   11.7700 F   0  0  0  0  0  0  0  0  0  0  0  0
    6.4590    3.9580   12.1500 C   0  0  0  0  0  0  0  0  0  0  0  0
    7.3160    4.6040   13.0440 C   0  0  0  0  0  0  0  0  0  0  0  0
    5.6080    3.9690   15.9380 H   0  0  0  0  0  0  0  0  0  0  0  0
    4.1100    2.8330   14.3280 H   0  0  0  0  0  0  0  0  0  0  0  0
    6.6760    3.9320   11.0860 H   0  0  0  0  0  0  0  0  0  0  0  0
    8.2150    5.0760   12.6490 H   0  0  0  0  0  0  0  0  0  0  0  0
  1  6  1  0  0  0  0
  1  7  1  0  0  0  0
  2  9  1  0  0  0  0
  2  1  1  0  0  0  0
  3  4  1  0  0  0  0
  3  2  1  0  0  0  0
  4 12  1  0  0  0  0
  4  5  1  0  0  0  0
  5 13  1  0  0  0  0
  5  6  1  0  0  0  0
  6 16  1  0  0  0  0
  6 15  1  0  0  0  0
  8  2  1  0  0  0  0
 10  3  1  0  0  0  0
 11  3  1  0  0  0  0
 14  5  1  0  0  0  0
 18 19  1  0  0  0  0
 18 17  2  0  0  0  0
 19  1  1  0  0  0  0
 20 19  1  0  0  0  0
 21 23  1  0  0  0  0
 21 24  1  0  0  0  0
 21 18  1  0  0  0  0
 22 21  1  0  0  0  0
 24 27  1  0  0  0  0
 25 24  1  0  0  0  0
 26 24  1  0  0  0  0
 27 32  1  6  0  0  0
 27 28  1  0  0  0  0
 27 31  1  0  0  0  0
 28 29  1  0  0  0  0
 29 30  1  0  0  0  0
 29 35  1  0  0  0  0
 29 36  1  0  0  0  0
 30 37  1  0  0  0  0
 31 30  1  0  0  0  0
 33 28  1  0  0  0  0
 34 28  1  0  0  0  0
 38 30  1  0  0  0  0
 39 41  1  0  0  0  0
 39  4  1  0  0  0  0
 40 39  1  0  0  0  0
 42 43  1  0  0  0  0
 42 39  1  0  0  0  0
 43 49  1  0  0  0  0
 44 50  1  0  0  0  0
 44 43  2  0  0  0  0
 45 44  1  0  0  0  0
 46 45  1  0  0  0  0
 47 45  2  0  0  0  0
 47 48  1  0  0  0  0
 48 42  2  0  0  0  0
 51 47  1  0  0  0  0
 52 48  1  0  0  0  0
M  END
>  <MODEL>
11

>  <REMARK>
 VINA RESULT:    -5.998      4.501      8.009
 INTER + INTRA:          -9.321
 INTER:                  -9.178
 INTRA:                  -0.143
 UNBOUND:                -1.219
  Name = 
  6 active torsions:
  status: ('A' for Active; 'I' for Inactive)
    1  A    between atoms: C_2  and  C_3
    2  A    between atoms: C_3  and  C_4
    3  A    between atoms: C_4  and  C_5
    4  A    between atoms: N_10  and  C_11
    5  A    between atoms: N_14  and  C_15
    6  A    between atoms: C_15  and  C_16
                            x       y       z     vdW  Elec       q    Type
                         _______ _______ _______ _____ _____    ______ ____

>  <TORSDO>
F 6

$$$$
=
 OpenBabel07192307433D

 52 54  0  0  1  0  0  0  0  0999 V2000
    0.4250   10.8410   19.2950 C   0  0  0  0  0  0  0  0  0  0  0  0
    0.3560   10.0140   20.5820 C   0  0  0  0  0  0  0  0  0  0  0  0
    1.4930    9.0040   20.6670 C   0  0  0  0  0  0  0  0  0  0  0  0
    1.4930    8.1070   19.4530 N   0  0  0  0  0  4  0  0  0  0  0  0
    1.5780    8.8980   18.1640 C   0  0  0  0  0  0  0  0  0  0  0  0
    0.4230    9.8810   18.0990 C   0  0  0  0  0  0  0  0  0  0  0  0
   -0.4590   11.4860   19.2330 H   0  0  0  0  0  0  0  0  0  0  0  0
    0.3910   10.6710   21.4590 H   0  0  0  0  0  0  0  0  0  0  0  0
   -0.6030    9.4830   20.6210 H   0  0  0  0  0  0  0  0  0  0  0  0
    1.3630    8.3630   21.5450 H   0  0  0  0  0  0  0  0  0  0  0  0
    2.4730    9.4920   20.7210 H   0  0  0  0  0  0  0  0  0  0  0  0
    0.6040    7.5930   19.4350 H   0  0  0  0  0  0  0  0  0  0  0  0
    1.5060    8.1910   17.3330 H   0  0  0  0  0  0  0  0  0  0  0  0
    2.5540    9.3960   18.1370 H   0  0  0  0  0  0  0  0  0  0  0  0
    0.4560   10.4120   17.1450 H   0  0  0  0  0  0  0  0  0  0  0  0
   -0.5230    9.3230   18.0950 H   0  0  0  0  0  0  0  0  0  0  0  0
    0.5440   13.5440   18.3760 O   0  0  0  0  0  0  0  0  0  0  0  0
    1.5000   13.0620   18.9680 C   0  0  0  0  0  0  0  0  0  0  0  0
    1.5820   11.7320   19.3430 N   0  0  0  0  0  0  0  0  0  0  0  0
    2.2220   11.6090   20.1360 H   0  0  0  0  0  0  0  0  0  0  0  0
    2.7160   13.8760   19.3540 C   0  0  0  0  0  0  0  0  0  0  0  0
    3.2670   13.3210   20.1230 H   0  0  0  0  0  0  0  0  0  0  0  0
    2.3870   14.8070   19.8300 H   0  0  0  0  0  0  0  0  0  0  0  0
    3.6390   14.1780   18.1740 C   0  0  0  0  0  0  0  0  0  0  0  0
    4.0420   13.2150   17.8340 H   0  0  0  0  0  0  0  0  0  0  0  0
    3.0570   14.5840   17.3380 H   0  0  0  0  0  0  0  0  0  0  0  0
    4.7910   15.1370   18.4810 C   0  0  2  0  0  0  0  0  0  0  0  0
    6.1200   14.7020   17.8770 C   0  0  0  0  0  0  0  0  0  0  0  0
    7.1110   15.2660   18.8640 C   0  0  0  0  0  0  0  0  0  0  0  0
    6.3910   15.0470   20.1740 C   0  0  0  0  0  0  0  0  0  0  0  0
    4.9930   15.2620   19.9080 O   0  0  0  0  0  0  0  0  0  0  0  0
    4.5410   16.1410   18.1180 H   0  0  0  0  0  0  0  0  0  0  0  0
    6.2630   15.0740   16.8580 H   0  0  0  0  0  0  0  0  0  0  0  0
    6.2080   13.6090   17.8530 H   0  0  0  0  0  0  0  0  0  0  0  0
    7.2460   16.3400   18.6850 H   0  0  0  0  0  0  0  0  0  0  0  0
    8.0900   14.7820   18.8260 H   0  0  0  0  0  0  0  0  0  0  0  0
    6.7250   15.7270   20.9630 H   0  0  0  0  0  0  0  0  0  0  0  0
    6.5080   14.0130   20.5240 H   0  0  0  0  0  0  0  0  0  0  0  0
    2.5820    7.0570   19.5560 C   0  0  0  0  0  0  0  0  0  0  0  0
    3.3650    7.3250   18.8370 H   0  0  0  0  0  0  0  0  0  0  0  0
    3.0130    7.1300   20.5620 H   0  0  0  0  0  0  0  0  0  0  0  0
    2.0770    5.6550   19.3430 C   0  0  0  0  0  0  0  0  0  0  0  0
    2.1880    5.0410   18.0840 C   0  0  0  0  0  0  0  0  0  0  0  0
    1.7370    3.7330   17.8960 C   0  0  0  0  0  0  0  0  0  0  0  0
    1.1810    3.0360   18.9610 C   0  0  0  0  0  0  0  0  0  0  0  0
    0.7550    1.7810   18.7780 F   0  0  0  0  0  0  0  0  0  0  0  0
    1.0560    3.6270   20.2120 C   0  0  0  0  0  0  0  0  0  0  0  0
    1.5000    4.9370   20.4050 C   0  0  0  0  0  0  0  0  0  0  0  0
    2.6100    5.5690   17.2320 H   0  0  0  0  0  0  0  0  0  0  0  0
    1.8120    3.2470   16.9250 H   0  0  0  0  0  0  0  0  0  0  0  0
    0.6100    3.0620   21.0260 H   0  0  0  0  0  0  0  0  0  0  0  0
    1.3820    5.3840   21.3910 H   0  0  0  0  0  0  0  0  0  0  0  0
  1 19  1  0  0  0  0
  1  2  1  0  0  0  0
  2  9  1  0  0  0  0
  2  3  1  0  0  0  0
  2  8  1  0  0  0  0
  3 11  1  0  0  0  0
  3 10  1  0  0  0  0
  4 39  1  0  0  0  0
  4  3  1  0  0  0  0
  5  4  1  0  0  0  0
  6  5  1  0  0  0  0
  6  1  1  0  0  0  0
  7  1  1  0  0  0  0
 12  4  1  0  0  0  0
 13  5  1  0  0  0  0
 14  5  1  0  0  0  0
 15  6  1  0  0  0  0
 16  6  1  0  0  0  0
 17 18  2  0  0  0  0
 18 19  1  0  0  0  0
 18 21  1  0  0  0  0
 19 20  1  0  0  0  0
 21 23  1  0  0  0  0
 21 22  1  0  0  0  0
 24 27  1  0  0  0  0
 24 21  1  0  0  0  0
 25 24  1  0  0  0  0
 26 24  1  0  0  0  0
 27 32  1  6  0  0  0
 27 31  1  0  0  0  0
 28 27  1  0  0  0  0
 28 29  1  0  0  0  0
 29 30  1  0  0  0  0
 30 38  1  0  0  0  0
 30 37  1  0  0  0  0
 31 30  1  0  0  0  0
 33 28  1  0  0  0  0
 34 28  1  0  0  0  0
 35 29  1  0  0  0  0
 36 29  1  0  0  0  0
 39 41  1  0  0  0  0
 40 39  1  0  0  0  0
 42 39  1  0  0  0  0
 42 48  1  0  0  0  0
 43 42  2  0  0  0  0
 44 43  1  0  0  0  0
 44 45  2  0  0  0  0
 45 47  1  0  0  0  0
 46 45  1  0  0  0  0
 47 48  2  0  0  0  0
 47 51  1  0  0  0  0
 48 52  1  0  0  0  0
 49 43  1  0  0  0  0
 50 44  1  0  0  0  0
M  END
>  <MODEL>
12

>  <REMARK>
 VINA RESULT:    -5.896      4.519      5.977
 INTER + INTRA:          -9.183
 INTER:                  -8.536
 INTRA:                  -0.647
 UNBOUND:                -1.219
  Name = 
  6 active torsions:
  status: ('A' for Active; 'I' for Inactive)
    1  A    between atoms: C_2  and  C_3
    2  A    between atoms: C_3  and  C_4
    3  A    between atoms: C_4  and  C_5
    4  A    between atoms: N_10  and  C_11
    5  A    between atoms: N_14  and  C_15
    6  A    between atoms: C_15  and  C_16
                            x       y       z     vdW  Elec       q    Type
                         _______ _______ _______ _____ _____    ______ ____

>  <TORSDO>
F 6

$$$$
=
 OpenBabel07192307433D

 52 54  0  0  1  0  0  0  0  0999 V2000
    3.8530    6.2340   17.9100 C   0  0  0  0  0  0  0  0  0  0  0  0
    4.2540    6.0930   19.3820 C   0  0  0  0  0  0  0  0  0  0  0  0
    3.0410    6.1240   20.3030 C   0  0  0  0  0  0  0  0  0  0  0  0
    2.2420    7.3840   20.0820 N   0  0  0  0  0  4  0  0  0  0  0  0
    1.8170    7.5410   18.6360 C   0  0  0  0  0  0  0  0  0  0  0  0
    3.0470    7.5280   17.7460 C   0  0  0  0  0  0  0  0  0  0  0  0
    4.7590    6.3000   17.2960 H   0  0  0  0  0  0  0  0  0  0  0  0
    4.8040    5.1590   19.5400 H   0  0  0  0  0  0  0  0  0  0  0  0
    4.9330    6.9110   19.6530 H   0  0  0  0  0  0  0  0  0  0  0  0
    3.3630    6.1200   21.3500 H   0  0  0  0  0  0  0  0  0  0  0  0
    2.3730    5.2710   20.1310 H   0  0  0  0  0  0  0  0  0  0  0  0
    2.8410    8.1870   20.3100 H   0  0  0  0  0  0  0  0  0  0  0  0
    1.3050    8.5020   18.5410 H   0  0  0  0  0  0  0  0  0  0  0  0
    1.1200    6.7300   18.4000 H   0  0  0  0  0  0  0  0  0  0  0  0
    2.7420    7.6940   16.7100 H   0  0  0  0  0  0  0  0  0  0  0  0
    3.6880    8.3800   18.0080 H   0  0  0  0  0  0  0  0  0  0  0  0
    5.0210    3.7160   17.2310 O   0  0  0  0  0  0  0  0  0  0  0  0
    3.8040    3.8280   17.2740 C   0  0  0  0  0  0  0  0  0  0  0  0
    3.1480    5.0310   17.4750 N   0  0  0  0  0  0  0  0  0  0  0  0
    2.2120    4.8810   17.8670 H   0  0  0  0  0  0  0  0  0  0  0  0
    2.8690    2.6500   17.1040 C   0  0  0  0  0  0  0  0  0  0  0  0
    3.3880    1.7510   17.4600 H   0  0  0  0  0  0  0  0  0  0  0  0
    2.6850    2.4900   16.0360 H   0  0  0  0  0  0  0  0  0  0  0  0
    1.5490    2.8150   17.8550 C   0  0  0  0  0  0  0  0  0  0  0  0
    1.3270    3.8900   17.8740 H   0  0  0  0  0  0  0  0  0  0  0  0
    0.7360    2.3400   17.2920 H   0  0  0  0  0  0  0  0  0  0  0  0
    1.5420    2.2650   19.2840 C   0  0  2  0  0  0  0  0  0  0  0  0
    0.9080    3.2100   20.2950 C   0  0  0  0  0  0  0  0  0  0  0  0
    1.6590    2.8670   21.5570 C   0  0  0  0  0  0  0  0  0  0  0  0
    3.0510    2.6240   21.0240 C   0  0  0  0  0  0  0  0  0  0  0  0
    2.8870    1.9940   19.7390 O   0  0  0  0  0  0  0  0  0  0  0  0
    1.0120    1.3050   19.3050 H   0  0  0  0  0  0  0  0  0  0  0  0
   -0.1740    3.0720   20.3830 H   0  0  0  0  0  0  0  0  0  0  0  0
    1.0940    4.2590   20.0310 H   0  0  0  0  0  0  0  0  0  0  0  0
    1.2560    1.9440   21.9910 H   0  0  0  0  0  0  0  0  0  0  0  0
    1.6210    3.6520   22.3160 H   0  0  0  0  0  0  0  0  0  0  0  0
    3.6510    1.9820   21.6750 H   0  0  0  0  0  0  0  0  0  0  0  0
    3.5870    3.5680   20.8650 H   0  0  0  0  0  0  0  0  0  0  0  0
    1.0660    7.4550   21.0370 C   0  0  0  0  0  0  0  0  0  0  0  0
    0.2630    6.8410   20.6150 H   0  0  0  0  0  0  0  0  0  0  0  0
    1.3820    6.9910   21.9790 H   0  0  0  0  0  0  0  0  0  0  0  0
    0.6120    8.8630   21.3170 C   0  0  0  0  0  0  0  0  0  0  0  0
   -0.2270    9.1370   22.4100 C   0  0  0  0  0  0  0  0  0  0  0  0
   -0.6300   10.4470   22.6790 C   0  0  0  0  0  0  0  0  0  0  0  0
   -0.1930   11.4830   21.8630 C   0  0  0  0  0  0  0  0  0  0  0  0
   -0.5760   12.7370   22.1270 F   0  0  0  0  0  0  0  0  0  0  0  0
    0.6320   11.2330   20.7740 C   0  0  0  0  0  0  0  0  0  0  0  0
    1.0340    9.9240   20.4970 C   0  0  0  0  0  0  0  0  0  0  0  0
   -0.5910    8.3410   23.0570 H   0  0  0  0  0  0  0  0  0  0  0  0
   -1.2840   10.6720   23.5190 H   0  0  0  0  0  0  0  0  0  0  0  0
    0.9530   12.0600   20.1470 H   0  0  0  0  0  0  0  0  0  0  0  0
    1.6710    9.7500   19.6310 H   0  0  0  0  0  0  0  0  0  0  0  0
  1  2  1  0  0  0  0
  2  8  1  0  0  0  0
  2  9  1  0  0  0  0
  2  3  1  0  0  0  0
  3 10  1  0  0  0  0
  4  3  1  0  0  0  0
  4 12  1  0  0  0  0
  4 39  1  0  0  0  0
  5  4  1  0  0  0  0
  6  1  1  0  0  0  0
  6 16  1  0  0  0  0
  6  5  1  0  0  0  0
  7  1  1  0  0  0  0
 11  3  1  0  0  0  0
 13  5  1  0  0  0  0
 14  5  1  0  0  0  0
 15  6  1  0  0  0  0
 17 18  2  0  0  0  0
 18 19  1  0  0  0  0
 19 20  1  0  0  0  0
 19  1  1  0  0  0  0
 21 18  1  0  0  0  0
 21 22  1  0  0  0  0
 21 24  1  0  0  0  0
 23 21  1  0  0  0  0
 24 25  1  0  0  0  0
 24 27  1  0  0  0  0
 26 24  1  0  0  0  0
 27 32  1  1  0  0  0
 27 31  1  0  0  0  0
 27 28  1  0  0  0  0
 28 33  1  0  0  0  0
 28 29  1  0  0  0  0
 29 35  1  0  0  0  0
 29 36  1  0  0  0  0
 30 29  1  0  0  0  0
 30 37  1  0  0  0  0
 31 30  1  0  0  0  0
 34 28  1  0  0  0  0
 38 30  1  0  0  0  0
 39 42  1  0  0  0  0
 39 41  1  0  0  0  0
 40 39  1  0  0  0  0
 42 43  1  0  0  0  0
 43 44  2  0  0  0  0
 43 49  1  0  0  0  0
 44 50  1  0  0  0  0
 45 46  1  0  0  0  0
 45 44  1  0  0  0  0
 47 45  2  0  0  0  0
 48 47  1  0  0  0  0
 48 42  2  0  0  0  0
 51 47  1  0  0  0  0
 52 48  1  0  0  0  0
M  END
>  <MODEL>
13

>  <REMARK>
 VINA RESULT:    -5.865      5.074      8.141
 INTER + INTRA:          -9.141
 INTER:                  -8.571
 INTRA:                  -0.569
 UNBOUND:                -1.219
  Name = 
  6 active torsions:
  status: ('A' for Active; 'I' for Inactive)
    1  A    between atoms: C_2  and  C_3
    2  A    between atoms: C_3  and  C_4
    3  A    between atoms: C_4  and  C_5
    4  A    between atoms: N_10  and  C_11
    5  A    between atoms: N_14  and  C_15
    6  A    between atoms: C_15  and  C_16
                            x       y       z     vdW  Elec       q    Type
                         _______ _______ _______ _____ _____    ______ ____

>  <TORSDO>
F 6

$$$$
=
 OpenBabel07192307433D

 52 54  0  0  1  0  0  0  0  0999 V2000
   -0.2090   10.6780   20.3790 C   0  0  0  0  0  0  0  0  0  0  0  0
   -0.1690    9.5190   21.3800 C   0  0  0  0  0  0  0  0  0  0  0  0
    1.1000    8.6890   21.2330 C   0  0  0  0  0  0  0  0  0  0  0  0
    1.2390    8.1820   19.8200 N   0  0  0  0  0  4  0  0  0  0  0  0
    1.2200    9.3100   18.8080 C   0  0  0  0  0  0  0  0  0  0  0  0
   -0.0640   10.1050   18.9640 C   0  0  0  0  0  0  0  0  0  0  0  0
   -1.1760   11.1880   20.4570 H   0  0  0  0  0  0  0  0  0  0  0  0
   -0.2360    9.8990   22.4050 H   0  0  0  0  0  0  0  0  0  0  0  0
   -1.0420    8.8740   21.2220 H   0  0  0  0  0  0  0  0  0  0  0  0
    1.0560    7.8150   21.8910 H   0  0  0  0  0  0  0  0  0  0  0  0
    1.9990    9.2700   21.4700 H   0  0  0  0  0  0  0  0  0  0  0  0
    0.4330    7.5790   19.6160 H   0  0  0  0  0  0  0  0  0  0  0  0
    1.2570    8.8640   17.8110 H   0  0  0  0  0  0  0  0  0  0  0  0
    2.1140    9.9210   18.9680 H   0  0  0  0  0  0  0  0  0  0  0  0
   -0.1000   10.8830   18.1990 H   0  0  0  0  0  0  0  0  0  0  0  0
   -0.9200    9.4480   18.7590 H   0  0  0  0  0  0  0  0  0  0  0  0
   -0.3550   13.5020   19.9710 O   0  0  0  0  0  0  0  0  0  0  0  0
    0.5900   13.0260   20.5860 C   0  0  0  0  0  0  0  0  0  0  0  0
    0.8080   11.6670   20.7300 N   0  0  0  0  0  0  0  0  0  0  0  0
    1.3710   11.4680   21.5640 H   0  0  0  0  0  0  0  0  0  0  0  0
    1.6390   13.8830   21.2610 C   0  0  0  0  0  0  0  0  0  0  0  0
    1.6750   13.6040   22.3210 H   0  0  0  0  0  0  0  0  0  0  0  0
    1.3180   14.9300   21.2350 H   0  0  0  0  0  0  0  0  0  0  0  0
    3.0280   13.7340   20.6410 C   0  0  0  0  0  0  0  0  0  0  0  0
    3.7460   13.7220   21.4710 H   0  0  0  0  0  0  0  0  0  0  0  0
    3.1120   12.7610   20.1410 H   0  0  0  0  0  0  0  0  0  0  0  0
    3.4130   14.8320   19.6460 C   0  0  2  0  0  0  0  0  0  0  0  0
    2.8470   14.6110   18.2500 C   0  0  0  0  0  0  0  0  0  0  0  0
    3.8910   15.2670   17.3810 C   0  0  0  0  0  0  0  0  0  0  0  0
    5.1630   14.8960   18.1070 C   0  0  0  0  0  0  0  0  0  0  0  0
    4.8500   14.9250   19.5120 O   0  0  0  0  0  0  0  0  0  0  0  0
    3.0770   15.8050   20.0230 H   0  0  0  0  0  0  0  0  0  0  0  0
    1.8470   15.0400   18.1260 H   0  0  0  0  0  0  0  0  0  0  0  0
    2.7870   13.5430   18.0080 H   0  0  0  0  0  0  0  0  0  0  0  0
    3.7550   16.3550   17.3930 H   0  0  0  0  0  0  0  0  0  0  0  0
    3.8730   14.9260   16.3440 H   0  0  0  0  0  0  0  0  0  0  0  0
    5.9880   15.5840   17.8990 H   0  0  0  0  0  0  0  0  0  0  0  0
    5.4800   13.8760   17.8590 H   0  0  0  0  0  0  0  0  0  0  0  0
    2.4660    7.3030   19.6770 C   0  0  0  0  0  0  0  0  0  0  0  0
    3.0820    7.7260   18.8750 H   0  0  0  0  0  0  0  0  0  0  0  0
    3.0350    7.3820   20.6120 H   0  0  0  0  0  0  0  0  0  0  0  0
    2.1350    5.8560   19.4310 C   0  0  0  0  0  0  0  0  0  0  0  0
    1.6190    5.0570   20.4660 C   0  0  0  0  0  0  0  0  0  0  0  0
    1.2930    3.7200   20.2290 C   0  0  0  0  0  0  0  0  0  0  0  0
    1.4760    3.1810   18.9620 C   0  0  0  0  0  0  0  0  0  0  0  0
    1.1570    1.9010   18.7370 F   0  0  0  0  0  0  0  0  0  0  0  0
    1.9900    3.9510   17.9270 C   0  0  0  0  0  0  0  0  0  0  0  0
    2.3230    5.2870   18.1590 C   0  0  0  0  0  0  0  0  0  0  0  0
    1.4760    5.4530   21.4690 H   0  0  0  0  0  0  0  0  0  0  0  0
    0.8970    3.0890   21.0230 H   0  0  0  0  0  0  0  0  0  0  0  0
    2.1300    3.5020   16.9470 H   0  0  0  0  0  0  0  0  0  0  0  0
    2.7360    5.8690   17.3360 H   0  0  0  0  0  0  0  0  0  0  0  0
  1  7  1  0  0  0  0
  1 19  1  0  0  0  0
  1  2  1  0  0  0  0
  2  8  1  0  0  0  0
  3  2  1  0  0  0  0
  3 11  1  0  0  0  0
  3 10  1  0  0  0  0
  4  3  1  0  0  0  0
  5  6  1  0  0  0  0
  5 14  1  0  0  0  0
  5  4  1  0  0  0  0
  6  1  1  0  0  0  0
  9  2  1  0  0  0  0
 12  4  1  0  0  0  0
 13  5  1  0  0  0  0
 15  6  1  0  0  0  0
 16  6  1  0  0  0  0
 17 18  2  0  0  0  0
 18 19  1  0  0  0  0
 18 21  1  0  0  0  0
 19 20  1  0  0  0  0
 21 22  1  0  0  0  0
 23 21  1  0  0  0  0
 24 21  1  0  0  0  0
 24 25  1  0  0  0  0
 26 24  1  0  0  0  0
 27 32  1  1  0  0  0
 27 24  1  0  0  0  0
 28 27  1  0  0  0  0
 29 35  1  0  0  0  0
 29 30  1  0  0  0  0
 29 28  1  0  0  0  0
 30 31  1  0  0  0  0
 31 27  1  0  0  0  0
 33 28  1  0  0  0  0
 34 28  1  0  0  0  0
 36 29  1  0  0  0  0
 37 30  1  0  0  0  0
 38 30  1  0  0  0  0
 39  4  1  0  0  0  0
 39 41  1  0  0  0  0
 40 39  1  0  0  0  0
 42 39  1  0  0  0  0
 42 43  1  0  0  0  0
 43 49  1  0  0  0  0
 44 43  2  0  0  0  0
 44 50  1  0  0  0  0
 45 44  1  0  0  0  0
 46 45  1  0  0  0  0
 47 48  1  0  0  0  0
 47 45  2  0  0  0  0
 48 42  2  0  0  0  0
 51 47  1  0  0  0  0
 52 48  1  0  0  0  0
M  END
>  <MODEL>
14

>  <REMARK>
 VINA RESULT:    -5.851      5.184      6.640
 INTER + INTRA:          -9.122
 INTER:                  -8.414
 INTRA:                  -0.708
 UNBOUND:                -1.219
  Name = 
  6 active torsions:
  status: ('A' for Active; 'I' for Inactive)
    1  A    between atoms: C_2  and  C_3
    2  A    between atoms: C_3  and  C_4
    3  A    between atoms: C_4  and  C_5
    4  A    between atoms: N_10  and  C_11
    5  A    between atoms: N_14  and  C_15
    6  A    between atoms: C_15  and  C_16
                            x       y       z     vdW  Elec       q    Type
                         _______ _______ _______ _____ _____    ______ ____

>  <TORSDO>
F 6

$$$$
=
 OpenBabel07192307433D

 52 54  0  0  1  0  0  0  0  0999 V2000
    0.3440   10.6940   19.0920 C   0  0  0  0  0  0  0  0  0  0  0  0
   -0.0080    9.7500   20.2450 C   0  0  0  0  0  0  0  0  0  0  0  0
    1.1300    8.7860   20.5540 C   0  0  0  0  0  0  0  0  0  0  0  0
    1.5110    8.0070   19.3200 N   0  0  0  0  0  4  0  0  0  0  0  0
    1.8810    8.9170   18.1670 C   0  0  0  0  0  0  0  0  0  0  0  0
    0.7220    9.8500   17.8690 C   0  0  0  0  0  0  0  0  0  0  0  0
   -0.5330   11.3040   18.8450 H   0  0  0  0  0  0  0  0  0  0  0  0
   -0.2500   10.3230   21.1470 H   0  0  0  0  0  0  0  0  0  0  0  0
   -0.9060    9.1770   19.9830 H   0  0  0  0  0  0  0  0  0  0  0  0
    0.8140    8.0620   21.3130 H   0  0  0  0  0  0  0  0  0  0  0  0
    2.0260    9.3090   20.9090 H   0  0  0  0  0  0  0  0  0  0  0  0
    0.6950    7.4590   19.0230 H   0  0  0  0  0  0  0  0  0  0  0  0
    2.0790    8.2870   17.2950 H   0  0  0  0  0  0  0  0  0  0  0  0
    2.7940    9.4560   18.4420 H   0  0  0  0  0  0  0  0  0  0  0  0
    0.9710   10.4680   17.0030 H   0  0  0  0  0  0  0  0  0  0  0  0
   -0.1500    9.2550   17.5670 H   0  0  0  0  0  0  0  0  0  0  0  0
    0.7120   13.3810   18.1910 O   0  0  0  0  0  0  0  0  0  0  0  0
    1.4080   12.9450   19.0990 C   0  0  0  0  0  0  0  0  0  0  0  0
    1.3850   11.6260   19.5200 N   0  0  0  0  0  0  0  0  0  0  0  0
    1.7050   11.5420   20.4910 H   0  0  0  0  0  0  0  0  0  0  0  0
    2.3860   13.8090   19.8650 C   0  0  0  0  0  0  0  0  0  0  0  0
    2.4810   14.7650   19.3370 H   0  0  0  0  0  0  0  0  0  0  0  0
    3.3780   13.3440   19.8310 H   0  0  0  0  0  0  0  0  0  0  0  0
    1.9630   14.0580   21.3120 C   0  0  0  0  0  0  0  0  0  0  0  0
    2.2920   13.1870   21.8940 H   0  0  0  0  0  0  0  0  0  0  0  0
    2.5030   14.9240   21.7160 H   0  0  0  0  0  0  0  0  0  0  0  0
    0.4620   14.2760   21.5210 C   0  0  2  0  0  0  0  0  0  0  0  0
    0.1420   15.2650   22.6320 C   0  0  0  0  0  0  0  0  0  0  0  0
   -1.1870   14.7550   23.1320 C   0  0  0  0  0  0  0  0  0  0  0  0
   -0.9930   13.2600   23.0330 C   0  0  0  0  0  0  0  0  0  0  0  0
   -0.1980   13.0330   21.8530 O   0  0  0  0  0  0  0  0  0  0  0  0
    0.0070   14.6240   20.5850 H   0  0  0  0  0  0  0  0  0  0  0  0
    0.1030   16.3010   22.2800 H   0  0  0  0  0  0  0  0  0  0  0  0
    0.8820   15.2110   23.4400 H   0  0  0  0  0  0  0  0  0  0  0  0
   -1.9880   15.0750   22.4540 H   0  0  0  0  0  0  0  0  0  0  0  0
   -1.4320   15.0900   24.1420 H   0  0  0  0  0  0  0  0  0  0  0  0
   -1.9360   12.7120   22.9530 H   0  0  0  0  0  0  0  0  0  0  0  0
   -0.4300   12.8740   23.8910 H   0  0  0  0  0  0  0  0  0  0  0  0
    2.6010    7.0000   19.6300 C   0  0  0  0  0  0  0  0  0  0  0  0
    3.4700    7.2550   19.0130 H   0  0  0  0  0  0  0  0  0  0  0  0
    2.8840    7.1380   20.6810 H   0  0  0  0  0  0  0  0  0  0  0  0
    2.1660    5.5730   19.4280 C   0  0  0  0  0  0  0  0  0  0  0  0
    1.6140    4.8390   20.4930 C   0  0  0  0  0  0  0  0  0  0  0  0
    1.1930    3.5220   20.2970 C   0  0  0  0  0  0  0  0  0  0  0  0
    1.3150    2.9390   19.0420 C   0  0  0  0  0  0  0  0  0  0  0  0
    0.9050    1.6790   18.8570 F   0  0  0  0  0  0  0  0  0  0  0  0
    1.8630    3.6450   17.9780 C   0  0  0  0  0  0  0  0  0  0  0  0
    2.2910    4.9600   18.1700 C   0  0  0  0  0  0  0  0  0  0  0  0
    1.5180    5.2700   21.4870 H   0  0  0  0  0  0  0  0  0  0  0  0
    0.7690    2.9400   21.1130 H   0  0  0  0  0  0  0  0  0  0  0  0
    1.9550    3.1620   17.0090 H   0  0  0  0  0  0  0  0  0  0  0  0
    2.7290    5.4900   17.3250 H   0  0  0  0  0  0  0  0  0  0  0  0
  1 19  1  0  0  0  0
  1  2  1  0  0  0  0
  2  3  1  0  0  0  0
  2  8  1  0  0  0  0
  3 11  1  0  0  0  0
  3 10  1  0  0  0  0
  4 39  1  0  0  0  0
  4  3  1  0  0  0  0
  5 14  1  0  0  0  0
  5  4  1  0  0  0  0
  6  5  1  0  0  0  0
  6  1  1  0  0  0  0
  7  1  1  0  0  0  0
  9  2  1  0  0  0  0
 12  4  1  0  0  0  0
 13  5  1  0  0  0  0
 15  6  1  0  0  0  0
 16  6  1  0  0  0  0
 17 18  2  0  0  0  0
 18 19  1  0  0  0  0
 18 21  1  0  0  0  0
 19 20  1  0  0  0  0
 21 24  1  0  0  0  0
 22 21  1  0  0  0  0
 23 21  1  0  0  0  0
 24 27  1  0  0  0  0
 24 26  1  0  0  0  0
 24 25  1  0  0  0  0
 27 32  1  6  0  0  0
 27 31  1  0  0  0  0
 27 28  1  0  0  0  0
 28 29  1  0  0  0  0
 28 34  1  0  0  0  0
 29 36  1  0  0  0  0
 30 29  1  0  0  0  0
 30 38  1  0  0  0  0
 31 30  1  0  0  0  0
 33 28  1  0  0  0  0
 35 29  1  0  0  0  0
 37 30  1  0  0  0  0
 39 41  1  0  0  0  0
 40 39  1  0  0  0  0
 42 39  1  0  0  0  0
 42 43  1  0  0  0  0
 43 49  1  0  0  0  0
 44 43  2  0  0  0  0
 44 50  1  0  0  0  0
 45 44  1  0  0  0  0
 46 45  1  0  0  0  0
 47 48  1  0  0  0  0
 47 45  2  0  0  0  0
 48 42  2  0  0  0  0
 51 47  1  0  0  0  0
 52 48  1  0  0  0  0
M  END
>  <MODEL>
15

>  <REMARK>
 VINA RESULT:    -5.772      6.188      7.411
 INTER + INTRA:          -9.016
 INTER:                  -8.201
 INTRA:                  -0.815
 UNBOUND:                -1.219
  Name = 
  6 active torsions:
  status: ('A' for Active; 'I' for Inactive)
    1  A    between atoms: C_2  and  C_3
    2  A    between atoms: C_3  and  C_4
    3  A    between atoms: C_4  and  C_5
    4  A    between atoms: N_10  and  C_11
    5  A    between atoms: N_14  and  C_15
    6  A    between atoms: C_15  and  C_16
                            x       y       z     vdW  Elec       q    Type
                         _______ _______ _______ _____ _____    ______ ____

>  <TORSDO>
F 6

$$$$
=
 OpenBabel07192307433D

 52 54  0  0  1  0  0  0  0  0999 V2000
    2.7260    7.4300   18.6580 C   0  0  0  0  0  0  0  0  0  0  0  0
    2.4500    7.6270   20.1520 C   0  0  0  0  0  0  0  0  0  0  0  0
    1.0390    8.1440   20.4020 C   0  0  0  0  0  0  0  0  0  0  0  0
    0.8030    9.4240   19.6400 N   0  0  0  0  0  4  0  0  0  0  0  0
    1.0530    9.2540   18.1550 C   0  0  0  0  0  0  0  0  0  0  0  0
    2.4710    8.7580   17.9360 C   0  0  0  0  0  0  0  0  0  0  0  0
    3.7770    7.1470   18.5210 H   0  0  0  0  0  0  0  0  0  0  0  0
    2.5900    6.6840   20.6930 H   0  0  0  0  0  0  0  0  0  0  0  0
    3.1740    8.3400   20.5640 H   0  0  0  0  0  0  0  0  0  0  0  0
    0.9040    8.3680   21.4650 H   0  0  0  0  0  0  0  0  0  0  0  0
    0.2760    7.4230   20.0880 H   0  0  0  0  0  0  0  0  0  0  0  0
    1.4710   10.1270   19.9810 H   0  0  0  0  0  0  0  0  0  0  0  0
    0.9290   10.2320   17.6820 H   0  0  0  0  0  0  0  0  0  0  0  0
    0.3010    8.5600   17.7640 H   0  0  0  0  0  0  0  0  0  0  0  0
    2.6660    8.6880   16.8640 H   0  0  0  0  0  0  0  0  0  0  0  0
    3.1770    9.5090   18.3170 H   0  0  0  0  0  0  0  0  0  0  0  0
    3.7080    4.9210   17.7070 O   0  0  0  0  0  0  0  0  0  0  0  0
    2.5020    5.0980   17.8170 C   0  0  0  0  0  0  0  0  0  0  0  0
    1.9300    6.3130   18.1540 N   0  0  0  0  0  0  0  0  0  0  0  0
    1.0050    6.1830   18.5750 H   0  0  0  0  0  0  0  0  0  0  0  0
    1.4910    3.9950   17.5900 C   0  0  0  0  0  0  0  0  0  0  0  0
    1.1390    4.0640   16.5530 H   0  0  0  0  0  0  0  0  0  0  0  0
    0.6120    4.1790   18.2200 H   0  0  0  0  0  0  0  0  0  0  0  0
    2.0530    2.5990   17.8520 C   0  0  0  0  0  0  0  0  0  0  0  0
    1.5320    1.9140   17.1700 H   0  0  0  0  0  0  0  0  0  0  0  0
    3.1150    2.5650   17.5760 H   0  0  0  0  0  0  0  0  0  0  0  0
    1.9040    2.1000   19.2920 C   0  0  2  0  0  0  0  0  0  0  0  0
    0.8370    2.8430   20.0840 C   0  0  0  0  0  0  0  0  0  0  0  0
    1.3760    2.7570   21.4900 C   0  0  0  0  0  0  0  0  0  0  0  0
    2.8600    2.9160   21.2550 C   0  0  0  0  0  0  0  0  0  0  0  0
    3.1470    2.2390   20.0170 O   0  0  0  0  0  0  0  0  0  0  0  0
    1.6700    1.0280   19.2880 H   0  0  0  0  0  0  0  0  0  0  0  0
   -0.1580    2.4000   19.9730 H   0  0  0  0  0  0  0  0  0  0  0  0
    0.7750    3.8950   19.7790 H   0  0  0  0  0  0  0  0  0  0  0  0
    1.1650    1.7660   21.9100 H   0  0  0  0  0  0  0  0  0  0  0  0
    0.9650    3.5140   22.1620 H   0  0  0  0  0  0  0  0  0  0  0  0
    3.4670    2.4880   22.0590 H   0  0  0  0  0  0  0  0  0  0  0  0
    3.1320    3.9710   21.1280 H   0  0  0  0  0  0  0  0  0  0  0  0
   -0.5760    9.9810   19.9300 C   0  0  0  0  0  0  0  0  0  0  0  0
   -1.1150    9.2340   20.5230 H   0  0  0  0  0  0  0  0  0  0  0  0
   -0.4440   10.8720   20.5560 H   0  0  0  0  0  0  0  0  0  0  0  0
   -1.3330   10.3690   18.6880 C   0  0  0  0  0  0  0  0  0  0  0  0
   -1.1580   11.6400   18.1140 C   0  0  0  0  0  0  0  0  0  0  0  0
   -1.8460   11.9880   16.9500 C   0  0  0  0  0  0  0  0  0  0  0  0
   -2.7030   11.0710   16.3560 C   0  0  0  0  0  0  0  0  0  0  0  0
   -3.3570   11.4070   15.2370 F   0  0  0  0  0  0  0  0  0  0  0  0
   -2.8960    9.8120   16.9100 C   0  0  0  0  0  0  0  0  0  0  0  0
   -2.2150    9.4600   18.0770 C   0  0  0  0  0  0  0  0  0  0  0  0
   -0.5000   12.3790   18.5660 H   0  0  0  0  0  0  0  0  0  0  0  0
   -1.7230   12.9710   16.4980 H   0  0  0  0  0  0  0  0  0  0  0  0
   -3.5780    9.1170   16.4300 H   0  0  0  0  0  0  0  0  0  0  0  0
   -2.3900    8.4720   18.5010 H   0  0  0  0  0  0  0  0  0  0  0  0
  1  2  1  0  0  0  0
  2  3  1  0  0  0  0
  2  9  1  0  0  0  0
  2  8  1  0  0  0  0
  3 10  1  0  0  0  0
  4 39  1  0  0  0  0
  4 12  1  0  0  0  0
  4  3  1  0  0  0  0
  5  4  1  0  0  0  0
  6  5  1  0  0  0  0
  6 16  1  0  0  0  0
  6  1  1  0  0  0  0
  7  1  1  0  0  0  0
 11  3  1  0  0  0  0
 13  5  1  0  0  0  0
 14  5  1  0  0  0  0
 15  6  1  0  0  0  0
 17 18  2  0  0  0  0
 18 19  1  0  0  0  0
 19 20  1  0  0  0  0
 19  1  1  0  0  0  0
 21 18  1  0  0  0  0
 21 24  1  0  0  0  0
 21 23  1  0  0  0  0
 22 21  1  0  0  0  0
 24 27  1  0  0  0  0
 25 24  1  0  0  0  0
 26 24  1  0  0  0  0
 27 32  1  6  0  0  0
 27 31  1  0  0  0  0
 27 28  1  0  0  0  0
 28 29  1  0  0  0  0
 29 35  1  0  0  0  0
 29 36  1  0  0  0  0
 30 29  1  0  0  0  0
 30 37  1  0  0  0  0
 31 30  1  0  0  0  0
 33 28  1  0  0  0  0
 34 28  1  0  0  0  0
 38 30  1  0  0  0  0
 39 40  1  0  0  0  0
 39 41  1  0  0  0  0
 42 39  1  0  0  0  0
 43 49  1  0  0  0  0
 43 42  1  0  0  0  0
 44 43  2  0  0  0  0
 45 47  2  0  0  0  0
 45 44  1  0  0  0  0
 46 45  1  0  0  0  0
 47 48  1  0  0  0  0
 48 52  1  0  0  0  0
 48 42  2  0  0  0  0
 50 44  1  0  0  0  0
 51 47  1  0  0  0  0
M  END
>  <MODEL>
16

>  <REMARK>
 VINA RESULT:    -5.754      5.498      8.919
 INTER + INTRA:          -8.991
 INTER:                  -8.472
 INTRA:                  -0.518
 UNBOUND:                -1.219
  Name = 
  6 active torsions:
  status: ('A' for Active; 'I' for Inactive)
    1  A    between atoms: C_2  and  C_3
    2  A    between atoms: C_3  and  C_4
    3  A    between atoms: C_4  and  C_5
    4  A    between atoms: N_10  and  C_11
    5  A    between atoms: N_14  and  C_15
    6  A    between atoms: C_15  and  C_16
                            x       y       z     vdW  Elec       q    Type
                         _______ _______ _______ _____ _____    ______ ____

>  <TORSDO>
F 6

$$$$
=
 OpenBabel07192307433D

 52 54  0  0  1  0  0  0  0  0999 V2000
    7.2440    5.3610   16.8310 C   0  0  0  0  0  0  0  0  0  0  0  0
    6.3610    4.9230   15.6590 C   0  0  0  0  0  0  0  0  0  0  0  0
    4.8800    5.0470   15.9900 C   0  0  0  0  0  0  0  0  0  0  0  0
    4.5490    4.2610   17.2340 N   0  0  0  0  0  4  0  0  0  0  0  0
    5.3970    4.6850   18.4160 C   0  0  0  0  0  0  0  0  0  0  0  0
    6.8650    4.5310   18.0640 C   0  0  0  0  0  0  0  0  0  0  0  0
    8.2950    5.1680   16.5830 H   0  0  0  0  0  0  0  0  0  0  0  0
    6.5840    5.5220   14.7690 H   0  0  0  0  0  0  0  0  0  0  0  0
    6.5880    3.8800   15.4050 H   0  0  0  0  0  0  0  0  0  0  0  0
    4.2760    4.6370   15.1750 H   0  0  0  0  0  0  0  0  0  0  0  0
    4.5840    6.0880   16.1650 H   0  0  0  0  0  0  0  0  0  0  0  0
    4.7580    3.2720   17.0520 H   0  0  0  0  0  0  0  0  0  0  0  0
    5.1500    4.0310   19.2560 H   0  0  0  0  0  0  0  0  0  0  0  0
    5.1320    5.7180   18.6670 H   0  0  0  0  0  0  0  0  0  0  0  0
    7.4730    4.7870   18.9350 H   0  0  0  0  0  0  0  0  0  0  0  0
    7.0750    3.4740   17.8560 H   0  0  0  0  0  0  0  0  0  0  0  0
    8.6540    6.9550   18.7380 O   0  0  0  0  0  0  0  0  0  0  0  0
    7.9370    7.4960   17.9070 C   0  0  0  0  0  0  0  0  0  0  0  0
    7.1260    6.8050   17.0240 N   0  0  0  0  0  0  0  0  0  0  0  0
    6.9280    7.3630   16.1870 H   0  0  0  0  0  0  0  0  0  0  0  0
    7.8550    9.0000   17.7540 C   0  0  0  0  0  0  0  0  0  0  0  0
    6.8050    9.2960   17.8680 H   0  0  0  0  0  0  0  0  0  0  0  0
    8.1370    9.2720   16.7310 H   0  0  0  0  0  0  0  0  0  0  0  0
    8.7170    9.7560   18.7640 C   0  0  0  0  0  0  0  0  0  0  0  0
    8.4490    9.3750   19.7580 H   0  0  0  0  0  0  0  0  0  0  0  0
    9.7760    9.5080   18.6120 H   0  0  0  0  0  0  0  0  0  0  0  0
    8.5620   11.2780   18.7390 C   0  0  2  0  0  0  0  0  0  0  0  0
    7.7920   11.7890   17.5280 C   0  0  0  0  0  0  0  0  0  0  0  0
    8.4020   13.1530   17.3230 C   0  0  0  0  0  0  0  0  0  0  0  0
    9.8520   12.8880   17.6540 C   0  0  0  0  0  0  0  0  0  0  0  0
    9.8530   11.9290   18.7290 O   0  0  0  0  0  0  0  0  0  0  0  0
    8.0580   11.6120   19.6540 H   0  0  0  0  0  0  0  0  0  0  0  0
    6.7110   11.8180   17.6960 H   0  0  0  0  0  0  0  0  0  0  0  0
    7.9800   11.1660   16.6450 H   0  0  0  0  0  0  0  0  0  0  0  0
    7.9760   13.8630   18.0420 H   0  0  0  0  0  0  0  0  0  0  0  0
    8.2570   13.5490   16.3150 H   0  0  0  0  0  0  0  0  0  0  0  0
   10.3900   13.7890   17.9640 H   0  0  0  0  0  0  0  0  0  0  0  0
   10.3780   12.4350   16.8050 H   0  0  0  0  0  0  0  0  0  0  0  0
    3.0650    4.3270   17.5390 C   0  0  0  0  0  0  0  0  0  0  0  0
    2.5320    4.2910   16.5830 H   0  0  0  0  0  0  0  0  0  0  0  0
    2.8070    3.4210   18.1010 H   0  0  0  0  0  0  0  0  0  0  0  0
    2.6800    5.5310   18.3550 C   0  0  0  0  0  0  0  0  0  0  0  0
    2.7370    6.8190   17.7950 C   0  0  0  0  0  0  0  0  0  0  0  0
    2.3590    7.9320   18.5490 C   0  0  0  0  0  0  0  0  0  0  0  0
    1.9200    7.7630   19.8550 C   0  0  0  0  0  0  0  0  0  0  0  0
    1.5530    8.8320   20.5720 F   0  0  0  0  0  0  0  0  0  0  0  0
    1.8610    6.5000   20.4300 C   0  0  0  0  0  0  0  0  0  0  0  0
    2.2430    5.3830   19.6830 C   0  0  0  0  0  0  0  0  0  0  0  0
    3.0870    6.9790   16.7780 H   0  0  0  0  0  0  0  0  0  0  0  0
    2.4030    8.9360   18.1290 H   0  0  0  0  0  0  0  0  0  0  0  0
    1.5210    6.3960   21.4560 H   0  0  0  0  0  0  0  0  0  0  0  0
    2.2000    4.4040   20.1570 H   0  0  0  0  0  0  0  0  0  0  0  0
  1 19  1  0  0  0  0
  1  6  1  0  0  0  0
  2  3  1  0  0  0  0
  2  1  1  0  0  0  0
  3 11  1  0  0  0  0
  3  4  1  0  0  0  0
  4 39  1  0  0  0  0
  4  5  1  0  0  0  0
  5 14  1  0  0  0  0
  5 13  1  0  0  0  0
  6  5  1  0  0  0  0
  6 15  1  0  0  0  0
  7  1  1  0  0  0  0
  8  2  1  0  0  0  0
  9  2  1  0  0  0  0
 10  3  1  0  0  0  0
 12  4  1  0  0  0  0
 16  6  1  0  0  0  0
 18 17  2  0  0  0  0
 19 18  1  0  0  0  0
 20 19  1  0  0  0  0
 21 22  1  0  0  0  0
 21 18  1  0  0  0  0
 21 24  1  0  0  0  0
 23 21  1  0  0  0  0
 24 25  1  0  0  0  0
 26 24  1  0  0  0  0
 27 24  1  0  0  0  0
 27 32  1  1  0  0  0
 28 33  1  0  0  0  0
 28 27  1  0  0  0  0
 29 28  1  0  0  0  0
 29 30  1  0  0  0  0
 29 35  1  0  0  0  0
 30 37  1  0  0  0  0
 30 31  1  0  0  0  0
 31 27  1  0  0  0  0
 34 28  1  0  0  0  0
 36 29  1  0  0  0  0
 38 30  1  0  0  0  0
 39 41  1  0  0  0  0
 39 42  1  0  0  0  0
 40 39  1  0  0  0  0
 42 48  1  0  0  0  0
 43 42  2  0  0  0  0
 43 44  1  0  0  0  0
 44 45  2  0  0  0  0
 45 47  1  0  0  0  0
 45 46  1  0  0  0  0
 47 51  1  0  0  0  0
 48 52  1  0  0  0  0
 48 47  2  0  0  0  0
 49 43  1  0  0  0  0
 50 44  1  0  0  0  0
M  END
>  <MODEL>
17

>  <REMARK>
 VINA RESULT:    -5.737      1.856      2.427
 INTER + INTRA:          -8.969
 INTER:                  -8.669
 INTRA:                  -0.299
 UNBOUND:                -1.219
  Name = 
  6 active torsions:
  status: ('A' for Active; 'I' for Inactive)
    1  A    between atoms: C_2  and  C_3
    2  A    between atoms: C_3  and  C_4
    3  A    between atoms: C_4  and  C_5
    4  A    between atoms: N_10  and  C_11
    5  A    between atoms: N_14  and  C_15
    6  A    between atoms: C_15  and  C_16
                            x       y       z     vdW  Elec       q    Type
                         _______ _______ _______ _____ _____    ______ ____

>  <TORSDO>
F 6

$$$$
=
 OpenBabel07192307433D

 52 54  0  0  1  0  0  0  0  0999 V2000
    0.3180   11.6650   20.6570 C   0  0  0  0  0  0  0  0  0  0  0  0
    1.4320   11.9810   19.6540 C   0  0  0  0  0  0  0  0  0  0  0  0
    1.4750   10.9660   18.5200 C   0  0  0  0  0  0  0  0  0  0  0  0
    1.6270    9.5680   19.0670 N   0  0  0  0  0  4  0  0  0  0  0  0
    0.5270    9.2220   20.0510 C   0  0  0  0  0  0  0  0  0  0  0  0
    0.5220   10.2380   21.1790 C   0  0  0  0  0  0  0  0  0  0  0  0
    0.3840   12.3630   21.5000 H   0  0  0  0  0  0  0  0  0  0  0  0
    1.2950   12.9840   19.2360 H   0  0  0  0  0  0  0  0  0  0  0  0
    2.3980   11.9830   20.1740 H   0  0  0  0  0  0  0  0  0  0  0  0
    2.3390   11.1590   17.8750 H   0  0  0  0  0  0  0  0  0  0  0  0
    0.5630   10.9890   17.9130 H   0  0  0  0  0  0  0  0  0  0  0  0
    2.5160    9.5200   19.5780 H   0  0  0  0  0  0  0  0  0  0  0  0
    0.7400    8.2280   20.4520 H   0  0  0  0  0  0  0  0  0  0  0  0
   -0.4210    9.2000   19.5020 H   0  0  0  0  0  0  0  0  0  0  0  0
   -0.2350    9.9550   21.9130 H   0  0  0  0  0  0  0  0  0  0  0  0
    1.4820   10.1890   21.7090 H   0  0  0  0  0  0  0  0  0  0  0  0
   -2.1300   12.2930   21.9900 O   0  0  0  0  0  0  0  0  0  0  0  0
   -2.0870   12.2980   20.7670 C   0  0  0  0  0  0  0  0  0  0  0  0
   -0.9840   11.8940   20.0350 N   0  0  0  0  0  0  0  0  0  0  0  0
   -0.9770   12.3260   19.1050 H   0  0  0  0  0  0  0  0  0  0  0  0
   -3.2500   12.7500   19.9110 C   0  0  0  0  0  0  0  0  0  0  0  0
   -2.9220   13.6130   19.3190 H   0  0  0  0  0  0  0  0  0  0  0  0
   -4.0530   13.1170   20.5610 H   0  0  0  0  0  0  0  0  0  0  0  0
   -3.7740   11.6550   18.9820 C   0  0  0  0  0  0  0  0  0  0  0  0
   -3.6080   10.6990   19.4930 H   0  0  0  0  0  0  0  0  0  0  0  0
   -4.8590   11.7580   18.8580 H   0  0  0  0  0  0  0  0  0  0  0  0
   -3.1240   11.6150   17.5960 C   0  0  2  0  0  0  0  0  0  0  0  0
   -4.0680   11.1470   16.4970 C   0  0  0  0  0  0  0  0  0  0  0  0
   -3.1170   10.4900   15.5280 C   0  0  0  0  0  0  0  0  0  0  0  0
   -2.1350    9.8320   16.4680 C   0  0  0  0  0  0  0  0  0  0  0  0
   -1.9840   10.7260   17.5860 O   0  0  0  0  0  0  0  0  0  0  0  0
   -2.7390   12.6100   17.3420 H   0  0  0  0  0  0  0  0  0  0  0  0
   -4.6420   11.9670   16.0540 H   0  0  0  0  0  0  0  0  0  0  0  0
   -4.7800   10.4020   16.8740 H   0  0  0  0  0  0  0  0  0  0  0  0
   -2.6090   11.2550   14.9280 H   0  0  0  0  0  0  0  0  0  0  0  0
   -3.6030    9.7840   14.8500 H   0  0  0  0  0  0  0  0  0  0  0  0
   -1.1600    9.6500   16.0070 H   0  0  0  0  0  0  0  0  0  0  0  0
   -2.5270    8.8820   16.8530 H   0  0  0  0  0  0  0  0  0  0  0  0
    1.7330    8.5550   17.9440 C   0  0  0  0  0  0  0  0  0  0  0  0
    0.7290    8.1560   17.7650 H   0  0  0  0  0  0  0  0  0  0  0  0
    2.0440    9.0980   17.0430 H   0  0  0  0  0  0  0  0  0  0  0  0
    2.7320    7.4630   18.2230 C   0  0  0  0  0  0  0  0  0  0  0  0
    3.8560    7.2980   17.3950 C   0  0  0  0  0  0  0  0  0  0  0  0
    4.7910    6.2980   17.6680 C   0  0  0  0  0  0  0  0  0  0  0  0
    4.6100    5.4670   18.7660 C   0  0  0  0  0  0  0  0  0  0  0  0
    5.5110    4.5130   19.0280 F   0  0  0  0  0  0  0  0  0  0  0  0
    3.5030    5.6090   19.5940 C   0  0  0  0  0  0  0  0  0  0  0  0
    2.5620    6.6040   19.3220 C   0  0  0  0  0  0  0  0  0  0  0  0
    4.0140    7.9290   16.5240 H   0  0  0  0  0  0  0  0  0  0  0  0
    5.6630    6.1550   17.0330 H   0  0  0  0  0  0  0  0  0  0  0  0
    3.3810    4.9410   20.4410 H   0  0  0  0  0  0  0  0  0  0  0  0
    1.6950    6.6900   19.9770 H   0  0  0  0  0  0  0  0  0  0  0  0
  1  6  1  0  0  0  0
  1  7  1  0  0  0  0
  2  9  1  0  0  0  0
  2  1  1  0  0  0  0
  3  4  1  0  0  0  0
  3  2  1  0  0  0  0
  4 12  1  0  0  0  0
  4  5  1  0  0  0  0
  5 13  1  0  0  0  0
  5  6  1  0  0  0  0
  6 16  1  0  0  0  0
  6 15  1  0  0  0  0
  8  2  1  0  0  0  0
 10  3  1  0  0  0  0
 11  3  1  0  0  0  0
 14  5  1  0  0  0  0
 18 17  2  0  0  0  0
 19  1  1  0  0  0  0
 19 18  1  0  0  0  0
 20 19  1  0  0  0  0
 21 23  1  0  0  0  0
 21 18  1  0  0  0  0
 22 21  1  0  0  0  0
 24 25  1  0  0  0  0
 24 21  1  0  0  0  0
 26 24  1  0  0  0  0
 27 32  1  6  0  0  0
 27 24  1  0  0  0  0
 28 34  1  0  0  0  0
 28 27  1  0  0  0  0
 29 30  1  0  0  0  0
 29 28  1  0  0  0  0
 30 38  1  0  0  0  0
 30 31  1  0  0  0  0
 31 27  1  0  0  0  0
 33 28  1  0  0  0  0
 35 29  1  0  0  0  0
 36 29  1  0  0  0  0
 37 30  1  0  0  0  0
 39 42  1  0  0  0  0
 39  4  1  0  0  0  0
 40 39  1  0  0  0  0
 41 39  1  0  0  0  0
 42 48  1  0  0  0  0
 43 44  1  0  0  0  0
 43 42  2  0  0  0  0
 44 45  2  0  0  0  0
 45 46  1  0  0  0  0
 45 47  1  0  0  0  0
 47 51  1  0  0  0  0
 48 47  2  0  0  0  0
 48 52  1  0  0  0  0
 49 43  1  0  0  0  0
 50 44  1  0  0  0  0
M  END
>  <MODEL>
18

>  <REMARK>
 VINA RESULT:    -5.668      6.990      9.196
 INTER + INTRA:          -8.875
 INTER:                  -8.098
 INTRA:                  -0.778
 UNBOUND:                -1.219
  Name = 
  6 active torsions:
  status: ('A' for Active; 'I' for Inactive)
    1  A    between atoms: C_2  and  C_3
    2  A    between atoms: C_3  and  C_4
    3  A    between atoms: C_4  and  C_5
    4  A    between atoms: N_10  and  C_11
    5  A    between atoms: N_14  and  C_15
    6  A    between atoms: C_15  and  C_16
                            x       y       z     vdW  Elec       q    Type
                         _______ _______ _______ _____ _____    ______ ____

>  <TORSDO>
F 6

$$$$
=
 OpenBabel07192307433D

 52 54  0  0  1  0  0  0  0  0999 V2000
    1.0210    8.1890   21.5370 C   0  0  0  0  0  0  0  0  0  0  0  0
   -0.4030    8.2540   20.9770 C   0  0  0  0  0  0  0  0  0  0  0  0
   -0.5690    9.4000   19.9880 C   0  0  0  0  0  0  0  0  0  0  0  0
   -0.1850   10.7100   20.6280 N   0  0  0  0  0  4  0  0  0  0  0  0
    1.2270   10.6800   21.1780 C   0  0  0  0  0  0  0  0  0  0  0  0
    1.3560    9.5430   22.1740 C   0  0  0  0  0  0  0  0  0  0  0  0
    1.0690    7.4120   22.3100 H   0  0  0  0  0  0  0  0  0  0  0  0
   -0.6620    7.3100   20.4830 H   0  0  0  0  0  0  0  0  0  0  0  0
   -1.1120    8.3840   21.8030 H   0  0  0  0  0  0  0  0  0  0  0  0
   -1.6170    9.4820   19.6800 H   0  0  0  0  0  0  0  0  0  0  0  0
    0.0560    9.2680   19.0970 H   0  0  0  0  0  0  0  0  0  0  0  0
   -0.8150   10.8740   21.4230 H   0  0  0  0  0  0  0  0  0  0  0  0
    1.4090   11.6330   21.6820 H   0  0  0  0  0  0  0  0  0  0  0  0
    1.9160   10.5770   20.3320 H   0  0  0  0  0  0  0  0  0  0  0  0
    2.3590    9.5570   22.6080 H   0  0  0  0  0  0  0  0  0  0  0  0
    0.6680    9.7190   23.0120 H   0  0  0  0  0  0  0  0  0  0  0  0
    1.6590    5.5130   20.7650 O   0  0  0  0  0  0  0  0  0  0  0  0
    2.1010    6.4520   20.1180 C   0  0  0  0  0  0  0  0  0  0  0  0
    1.9460    7.7780   20.4830 N   0  0  0  0  0  0  0  0  0  0  0  0
    2.0160    8.3980   19.6690 H   0  0  0  0  0  0  0  0  0  0  0  0
    2.8810    6.2640   18.8350 C   0  0  0  0  0  0  0  0  0  0  0  0
    3.9220    6.0430   19.0990 H   0  0  0  0  0  0  0  0  0  0  0  0
    2.9020    7.2130   18.2860 H   0  0  0  0  0  0  0  0  0  0  0  0
    2.3250    5.1500   17.9500 C   0  0  0  0  0  0  0  0  0  0  0  0
    1.3520    4.8650   18.3720 H   0  0  0  0  0  0  0  0  0  0  0  0
    2.1260    5.5360   16.9420 H   0  0  0  0  0  0  0  0  0  0  0  0
    3.2150    3.9100   17.8330 C   0  0  2  0  0  0  0  0  0  0  0  0
    2.4400    2.6000   17.8840 C   0  0  0  0  0  0  0  0  0  0  0  0
    3.4490    1.6640   18.5000 C   0  0  0  0  0  0  0  0  0  0  0  0
    4.1220    2.5660   19.5080 C   0  0  0  0  0  0  0  0  0  0  0  0
    4.1880    3.8700   18.9020 O   0  0  0  0  0  0  0  0  0  0  0  0
    3.7880    3.9550   16.8990 H   0  0  0  0  0  0  0  0  0  0  0  0
    2.0930    2.2750   16.8980 H   0  0  0  0  0  0  0  0  0  0  0  0
    1.5650    2.6800   18.5400 H   0  0  0  0  0  0  0  0  0  0  0  0
    4.1730    1.3430   17.7410 H   0  0  0  0  0  0  0  0  0  0  0  0
    3.0020    0.7750   18.9510 H   0  0  0  0  0  0  0  0  0  0  0  0
    5.1290    2.2320   19.7750 H   0  0  0  0  0  0  0  0  0  0  0  0
    3.5240    2.6550   20.4240 H   0  0  0  0  0  0  0  0  0  0  0  0
   -0.4050   11.8660   19.6730 C   0  0  0  0  0  0  0  0  0  0  0  0
   -0.3880   12.7890   20.2640 H   0  0  0  0  0  0  0  0  0  0  0  0
    0.4510   11.8910   18.9880 H   0  0  0  0  0  0  0  0  0  0  0  0
   -1.6700   11.7370   18.8660 C   0  0  0  0  0  0  0  0  0  0  0  0
   -1.6230   11.2850   17.5360 C   0  0  0  0  0  0  0  0  0  0  0  0
   -2.8000   11.1470   16.7970 C   0  0  0  0  0  0  0  0  0  0  0  0
   -4.0210   11.4520   17.3830 C   0  0  0  0  0  0  0  0  0  0  0  0
   -5.1470   11.3130   16.6740 F   0  0  0  0  0  0  0  0  0  0  0  0
   -4.0890   11.9060   18.6940 C   0  0  0  0  0  0  0  0  0  0  0  0
   -2.9150   12.0520   19.4360 C   0  0  0  0  0  0  0  0  0  0  0  0
   -0.6780   11.0500   17.0510 H   0  0  0  0  0  0  0  0  0  0  0  0
   -2.7770   10.8030   15.7640 H   0  0  0  0  0  0  0  0  0  0  0  0
   -5.0570   12.1450   19.1260 H   0  0  0  0  0  0  0  0  0  0  0  0
   -2.9910   12.4200   20.4590 H   0  0  0  0  0  0  0  0  0  0  0  0
  1  6  1  0  0  0  0
  1  7  1  0  0  0  0
  2  1  1  0  0  0  0
  2  9  1  0  0  0  0
  3  4  1  0  0  0  0
  3  2  1  0  0  0  0
  4  5  1  0  0  0  0
  4 12  1  0  0  0  0
  5 13  1  0  0  0  0
  5  6  1  0  0  0  0
  6 15  1  0  0  0  0
  6 16  1  0  0  0  0
  8  2  1  0  0  0  0
 10  3  1  0  0  0  0
 11  3  1  0  0  0  0
 14  5  1  0  0  0  0
 18 19  1  0  0  0  0
 18 17  2  0  0  0  0
 19  1  1  0  0  0  0
 20 19  1  0  0  0  0
 21 22  1  0  0  0  0
 21 18  1  0  0  0  0
 23 21  1  0  0  0  0
 24 25  1  0  0  0  0
 24 21  1  0  0  0  0
 26 24  1  0  0  0  0
 27 32  1  6  0  0  0
 27 28  1  0  0  0  0
 27 24  1  0  0  0  0
 27 31  1  0  0  0  0
 28 29  1  0  0  0  0
 28 34  1  0  0  0  0
 29 36  1  0  0  0  0
 29 30  1  0  0  0  0
 30 37  1  0  0  0  0
 30 38  1  0  0  0  0
 31 30  1  0  0  0  0
 33 28  1  0  0  0  0
 35 29  1  0  0  0  0
 39 40  1  0  0  0  0
 39  4  1  0  0  0  0
 41 39  1  0  0  0  0
 42 48  1  0  0  0  0
 42 39  1  0  0  0  0
 43 42  2  0  0  0  0
 44 45  2  0  0  0  0
 44 43  1  0  0  0  0
 45 47  1  0  0  0  0
 46 45  1  0  0  0  0
 47 51  1  0  0  0  0
 47 48  2  0  0  0  0
 48 52  1  0  0  0  0
 49 43  1  0  0  0  0
 50 44  1  0  0  0  0
M  END
>  <MODEL>
19

>  <REMARK>
 VINA RESULT:    -5.638      6.308      9.294
 INTER + INTRA:          -8.835
 INTER:                  -8.262
 INTRA:                  -0.573
 UNBOUND:                -1.219
  Name = 
  6 active torsions:
  status: ('A' for Active; 'I' for Inactive)
    1  A    between atoms: C_2  and  C_3
    2  A    between atoms: C_3  and  C_4
    3  A    between atoms: C_4  and  C_5
    4  A    between atoms: N_10  and  C_11
    5  A    between atoms: N_14  and  C_15
    6  A    between atoms: C_15  and  C_16
                            x       y       z     vdW  Elec       q    Type
                         _______ _______ _______ _____ _____    ______ ____

>  <TORSDO>
F 6

$$$$
=
 OpenBabel07192307433D

 52 54  0  0  1  0  0  0  0  0999 V2000
    2.2590    4.9690   18.3540 C   0  0  0  0  0  0  0  0  0  0  0  0
    1.9530    6.4210   17.9760 C   0  0  0  0  0  0  0  0  0  0  0  0
    2.3360    7.3880   19.0880 C   0  0  0  0  0  0  0  0  0  0  0  0
    1.6450    7.0120   20.3750 N   0  0  0  0  0  4  0  0  0  0  0  0
    1.9440    5.5830   20.7830 C   0  0  0  0  0  0  0  0  0  0  0  0
    1.5330    4.6430   19.6650 C   0  0  0  0  0  0  0  0  0  0  0  0
    1.8840    4.3050   17.5660 H   0  0  0  0  0  0  0  0  0  0  0  0
    2.4860    6.6970   17.0590 H   0  0  0  0  0  0  0  0  0  0  0  0
    0.8810    6.5220   17.7620 H   0  0  0  0  0  0  0  0  0  0  0  0
    2.0160    8.4030   18.8310 H   0  0  0  0  0  0  0  0  0  0  0  0
    3.4150    7.3890   19.2780 H   0  0  0  0  0  0  0  0  0  0  0  0
    0.6310    7.0770   20.2250 H   0  0  0  0  0  0  0  0  0  0  0  0
    1.3600    5.3640   21.6810 H   0  0  0  0  0  0  0  0  0  0  0  0
    3.0120    5.5160   21.0170 H   0  0  0  0  0  0  0  0  0  0  0  0
    1.7010    3.6120   19.9820 H   0  0  0  0  0  0  0  0  0  0  0  0
    0.4510    4.7310   19.5010 H   0  0  0  0  0  0  0  0  0  0  0  0
    3.6830    2.5830   17.6870 O   0  0  0  0  0  0  0  0  0  0  0  0
    4.3020    3.6030   17.9570 C   0  0  0  0  0  0  0  0  0  0  0  0
    3.7060    4.7690   18.4060 N   0  0  0  0  0  0  0  0  0  0  0  0
    4.2890    5.5870   18.1990 H   0  0  0  0  0  0  0  0  0  0  0  0
    5.8070    3.7010   17.8330 C   0  0  0  0  0  0  0  0  0  0  0  0
    6.2340    2.7270   18.0990 H   0  0  0  0  0  0  0  0  0  0  0  0
    6.1830    4.4100   18.5800 H   0  0  0  0  0  0  0  0  0  0  0  0
    6.2710    4.1040   16.4340 C   0  0  0  0  0  0  0  0  0  0  0  0
    7.1360    3.4720   16.1930 H   0  0  0  0  0  0  0  0  0  0  0  0
    5.4940    3.8610   15.6970 H   0  0  0  0  0  0  0  0  0  0  0  0
    6.6530    5.5780   16.2760 C   0  0  2  0  0  0  0  0  0  0  0  0
    7.5000    6.1100   17.4230 C   0  0  0  0  0  0  0  0  0  0  0  0
    7.1020    7.5650   17.4560 C   0  0  0  0  0  0  0  0  0  0  0  0
    5.6260    7.4810   17.1450 C   0  0  0  0  0  0  0  0  0  0  0  0
    5.4730    6.4100   16.1950 O   0  0  0  0  0  0  0  0  0  0  0  0
    7.1930    5.7190   15.3320 H   0  0  0  0  0  0  0  0  0  0  0  0
    8.5720    5.9580   17.2640 H   0  0  0  0  0  0  0  0  0  0  0  0
    7.2280    5.6350   18.3740 H   0  0  0  0  0  0  0  0  0  0  0  0
    7.6230    8.1120   16.6610 H   0  0  0  0  0  0  0  0  0  0  0  0
    7.3130    8.0540   18.4100 H   0  0  0  0  0  0  0  0  0  0  0  0
    5.2260    8.4080   16.7230 H   0  0  0  0  0  0  0  0  0  0  0  0
    5.0460    7.2180   18.0380 H   0  0  0  0  0  0  0  0  0  0  0  0
    1.9690    8.0030   21.4750 C   0  0  0  0  0  0  0  0  0  0  0  0
    2.1540    7.4300   22.3910 H   0  0  0  0  0  0  0  0  0  0  0  0
    2.9060    8.5030   21.1980 H   0  0  0  0  0  0  0  0  0  0  0  0
    0.9010    9.0460   21.6690 C   0  0  0  0  0  0  0  0  0  0  0  0
    0.2690    9.1960   22.9150 C   0  0  0  0  0  0  0  0  0  0  0  0
   -0.7060   10.1780   23.0970 C   0  0  0  0  0  0  0  0  0  0  0  0
   -1.0490   11.0130   22.0410 C   0  0  0  0  0  0  0  0  0  0  0  0
   -1.9810   11.9560   22.2210 F   0  0  0  0  0  0  0  0  0  0  0  0
   -0.4420   10.8770   20.7990 C   0  0  0  0  0  0  0  0  0  0  0  0
    0.5310    9.8940   20.6100 C   0  0  0  0  0  0  0  0  0  0  0  0
    0.5130    8.5480   23.7540 H   0  0  0  0  0  0  0  0  0  0  0  0
   -1.2070   10.3020   24.0560 H   0  0  0  0  0  0  0  0  0  0  0  0
   -0.7340   11.5380   19.9880 H   0  0  0  0  0  0  0  0  0  0  0  0
    0.9860    9.7980   19.6250 H   0  0  0  0  0  0  0  0  0  0  0  0
  1 19  1  0  0  0  0
  1  6  1  0  0  0  0
  2  1  1  0  0  0  0
  2  3  1  0  0  0  0
  3 11  1  0  0  0  0
  3  4  1  0  0  0  0
  4  5  1  0  0  0  0
  4 39  1  0  0  0  0
  5 14  1  0  0  0  0
  5 13  1  0  0  0  0
  6 15  1  0  0  0  0
  6  5  1  0  0  0  0
  7  1  1  0  0  0  0
  8  2  1  0  0  0  0
  9  2  1  0  0  0  0
 10  3  1  0  0  0  0
 12  4  1  0  0  0  0
 16  6  1  0  0  0  0
 17 18  2  0  0  0  0
 18 19  1  0  0  0  0
 20 19  1  0  0  0  0
 21 18  1  0  0  0  0
 21 22  1  0  0  0  0
 21 23  1  0  0  0  0
 24 21  1  0  0  0  0
 25 24  1  0  0  0  0
 26 24  1  0  0  0  0
 27 32  1  6  0  0  0
 27 24  1  0  0  0  0
 27 28  1  0  0  0  0
 28 29  1  0  0  0  0
 28 34  1  0  0  0  0
 29 36  1  0  0  0  0
 30 29  1  0  0  0  0
 30 38  1  0  0  0  0
 31 27  1  0  0  0  0
 31 30  1  0  0  0  0
 33 28  1  0  0  0  0
 35 29  1  0  0  0  0
 37 30  1  0  0  0  0
 39 42  1  0  0  0  0
 39 40  1  0  0  0  0
 41 39  1  0  0  0  0
 42 43  1  0  0  0  0
 43 44  2  0  0  0  0
 43 49  1  0  0  0  0
 44 50  1  0  0  0  0
 45 46  1  0  0  0  0
 45 44  1  0  0  0  0
 47 45  2  0  0  0  0
 48 47  1  0  0  0  0
 48 42  2  0  0  0  0
 51 47  1  0  0  0  0
 52 48  1  0  0  0  0
M  END
>  <MODEL>
20

>  <REMARK>
 VINA RESULT:    -5.633      4.316      6.389
 INTER + INTRA:          -8.828
 INTER:                  -7.776
 INTRA:                  -1.051
 UNBOUND:                -1.219
  Name = 
  6 active torsions:
  status: ('A' for Active; 'I' for Inactive)
    1  A    between atoms: C_2  and  C_3
    2  A    between atoms: C_3  and  C_4
    3  A    between atoms: C_4  and  C_5
    4  A    between atoms: N_10  and  C_11
    5  A    between atoms: N_14  and  C_15
    6  A    between atoms: C_15  and  C_16
                            x       y       z     vdW  Elec       q    Type
                         _______ _______ _______ _____ _____    ______ ____

>  <TORSDO>
F 6

$$$$
=
 OpenBabel07192307433D

 52 54  0  0  1  0  0  0  0  0999 V2000
   -0.1680   11.5650   21.0970 C   0  0  0  0  0  0  0  0  0  0  0  0
    1.0670   12.0050   20.3070 C   0  0  0  0  0  0  0  0  0  0  0  0
    1.2550   11.1770   19.0430 C   0  0  0  0  0  0  0  0  0  0  0  0
    1.3290    9.7090   19.3800 N   0  0  0  0  0  4  0  0  0  0  0  0
    0.1100    9.2410   20.1480 C   0  0  0  0  0  0  0  0  0  0  0  0
   -0.0380   10.0690   21.4110 C   0  0  0  0  0  0  0  0  0  0  0  0
   -0.2110   12.1220   22.0400 H   0  0  0  0  0  0  0  0  0  0  0  0
    0.9900   13.0650   20.0370 H   0  0  0  0  0  0  0  0  0  0  0  0
    1.9580   11.9040   20.9400 H   0  0  0  0  0  0  0  0  0  0  0  0
    2.1960   11.4470   18.5520 H   0  0  0  0  0  0  0  0  0  0  0  0
    0.4290   11.3160   18.3350 H   0  0  0  0  0  0  0  0  0  0  0  0
    2.1450    9.5610   19.9870 H   0  0  0  0  0  0  0  0  0  0  0  0
    0.2650    8.1920   20.4130 H   0  0  0  0  0  0  0  0  0  0  0  0
   -0.7580    9.3260   19.4860 H   0  0  0  0  0  0  0  0  0  0  0  0
   -0.8860    9.6950   21.9890 H   0  0  0  0  0  0  0  0  0  0  0  0
    0.8440    9.9170   22.0460 H   0  0  0  0  0  0  0  0  0  0  0  0
   -2.6990   12.3000   22.2010 O   0  0  0  0  0  0  0  0  0  0  0  0
   -2.5230   12.3640   20.9920 C   0  0  0  0  0  0  0  0  0  0  0  0
   -1.3770   11.9170   20.3560 N   0  0  0  0  0  0  0  0  0  0  0  0
   -1.2420   12.3940   19.4590 H   0  0  0  0  0  0  0  0  0  0  0  0
   -3.5550   12.9400   20.0460 C   0  0  0  0  0  0  0  0  0  0  0  0
   -3.0690   13.7180   19.4460 H   0  0  0  0  0  0  0  0  0  0  0  0
   -4.3320   13.4480   20.6290 H   0  0  0  0  0  0  0  0  0  0  0  0
   -4.1790   11.8920   19.1250 C   0  0  0  0  0  0  0  0  0  0  0  0
   -4.1380   10.9350   19.6600 H   0  0  0  0  0  0  0  0  0  0  0  0
   -5.2420   12.1170   18.9690 H   0  0  0  0  0  0  0  0  0  0  0  0
   -3.5040   11.7450   17.7590 C   0  0  2  0  0  0  0  0  0  0  0  0
   -4.3930   11.0910   16.7110 C   0  0  0  0  0  0  0  0  0  0  0  0
   -3.3810   10.4010   15.8300 C   0  0  0  0  0  0  0  0  0  0  0  0
   -2.3720    9.9230   16.8470 C   0  0  0  0  0  0  0  0  0  0  0  0
   -2.3040   10.9440   17.8600 O   0  0  0  0  0  0  0  0  0  0  0  0
   -3.1850   12.7310   17.3980 H   0  0  0  0  0  0  0  0  0  0  0  0
   -5.0150   11.8130   16.1720 H   0  0  0  0  0  0  0  0  0  0  0  0
   -5.0570   10.3430   17.1610 H   0  0  0  0  0  0  0  0  0  0  0  0
   -2.9170   11.1280   15.1540 H   0  0  0  0  0  0  0  0  0  0  0  0
   -3.8040    9.5900   15.2310 H   0  0  0  0  0  0  0  0  0  0  0  0
   -1.3780    9.7620   16.4190 H   0  0  0  0  0  0  0  0  0  0  0  0
   -2.7030    8.9960   17.3320 H   0  0  0  0  0  0  0  0  0  0  0  0
    1.5780    8.8790   18.1360 C   0  0  0  0  0  0  0  0  0  0  0  0
    0.6040    8.5370   17.7690 H   0  0  0  0  0  0  0  0  0  0  0  0
    2.0060    9.5470   17.3780 H   0  0  0  0  0  0  0  0  0  0  0  0
    2.5280    7.7340   18.3660 C   0  0  0  0  0  0  0  0  0  0  0  0
    2.3810    6.9020   19.4890 C   0  0  0  0  0  0  0  0  0  0  0  0
    3.2510    5.8280   19.6880 C   0  0  0  0  0  0  0  0  0  0  0  0
    4.2620    5.5800   18.7690 C   0  0  0  0  0  0  0  0  0  0  0  0
    5.0900    4.5470   18.9600 F   0  0  0  0  0  0  0  0  0  0  0  0
    4.4280    6.3940   17.6550 C   0  0  0  0  0  0  0  0  0  0  0  0
    3.5650    7.4730   17.4530 C   0  0  0  0  0  0  0  0  0  0  0  0
    1.6040    7.0810   20.2280 H   0  0  0  0  0  0  0  0  0  0  0  0
    3.1530    5.1790   20.5570 H   0  0  0  0  0  0  0  0  0  0  0  0
    5.2320    6.1830   16.9560 H   0  0  0  0  0  0  0  0  0  0  0  0
    3.7200    8.1040   16.5800 H   0  0  0  0  0  0  0  0  0  0  0  0
  1  6  1  0  0  0  0
  1  7  1  0  0  0  0
  2  9  1  0  0  0  0
  2  1  1  0  0  0  0
  3  4  1  0  0  0  0
  3  2  1  0  0  0  0
  4 12  1  0  0  0  0
  4  5  1  0  0  0  0
  5 13  1  0  0  0  0
  5  6  1  0  0  0  0
  6 15  1  0  0  0  0
  6 16  1  0  0  0  0
  8  2  1  0  0  0  0
 10  3  1  0  0  0  0
 11  3  1  0  0  0  0
 14  5  1  0  0  0  0
 18 17  2  0  0  0  0
 19 18  1  0  0  0  0
 19  1  1  0  0  0  0
 20 19  1  0  0  0  0
 21 23  1  0  0  0  0
 21 18  1  0  0  0  0
 22 21  1  0  0  0  0
 24 25  1  0  0  0  0
 24 21  1  0  0  0  0
 26 24  1  0  0  0  0
 27 32  1  6  0  0  0
 27 31  1  0  0  0  0
 27 24  1  0  0  0  0
 28 34  1  0  0  0  0
 28 27  1  0  0  0  0
 29 28  1  0  0  0  0
 29 30  1  0  0  0  0
 30 38  1  0  0  0  0
 30 31  1  0  0  0  0
 33 28  1  0  0  0  0
 35 29  1  0  0  0  0
 36 29  1  0  0  0  0
 37 30  1  0  0  0  0
 39 42  1  0  0  0  0
 39  4  1  0  0  0  0
 40 39  1  0  0  0  0
 41 39  1  0  0  0  0
 42 43  1  0  0  0  0
 43 44  2  0  0  0  0
 43 49  1  0  0  0  0
 44 50  1  0  0  0  0
 45 46  1  0  0  0  0
 45 44  1  0  0  0  0
 47 45  2  0  0  0  0
 48 47  1  0  0  0  0
 48 42  2  0  0  0  0
 51 47  1  0  0  0  0
 52 48  1  0  0  0  0
M  END
>  <MODEL>
21

>  <REMARK>
 VINA RESULT:    -5.632      7.194      9.482
 INTER + INTRA:          -8.826
 INTER:                  -8.022
 INTRA:                  -0.804
 UNBOUND:                -1.219
  Name = 
  6 active torsions:
  status: ('A' for Active; 'I' for Inactive)
    1  A    between atoms: C_2  and  C_3
    2  A    between atoms: C_3  and  C_4
    3  A    between atoms: C_4  and  C_5
    4  A    between atoms: N_10  and  C_11
    5  A    between atoms: N_14  and  C_15
    6  A    between atoms: C_15  and  C_16
                            x       y       z     vdW  Elec       q    Type
                         _______ _______ _______ _____ _____    ______ ____

>  <TORSDO>
F 6

$$$$
=
 OpenBabel07192307433D

 52 54  0  0  1  0  0  0  0  0999 V2000
    2.2250    3.3980   19.6420 C   0  0  0  0  0  0  0  0  0  0  0  0
    1.2290    4.1280   18.7360 C   0  0  0  0  0  0  0  0  0  0  0  0
    1.6120    5.5890   18.5370 C   0  0  0  0  0  0  0  0  0  0  0  0
    1.7370    6.2880   19.8680 N   0  0  0  0  0  4  0  0  0  0  0  0
    2.7300    5.5960   20.7810 C   0  0  0  0  0  0  0  0  0  0  0  0
    2.3110    4.1500   20.9760 C   0  0  0  0  0  0  0  0  0  0  0  0
    1.8610    2.3810   19.8310 H   0  0  0  0  0  0  0  0  0  0  0  0
    1.1700    3.6350   17.7590 H   0  0  0  0  0  0  0  0  0  0  0  0
    0.2270    4.0750   19.1800 H   0  0  0  0  0  0  0  0  0  0  0  0
    0.8330    6.1080   17.9680 H   0  0  0  0  0  0  0  0  0  0  0  0
    2.5690    5.6950   18.0130 H   0  0  0  0  0  0  0  0  0  0  0  0
    0.8230    6.2530   20.3350 H   0  0  0  0  0  0  0  0  0  0  0  0
    2.7170    6.1150   21.7420 H   0  0  0  0  0  0  0  0  0  0  0  0
    3.7230    5.6880   20.3290 H   0  0  0  0  0  0  0  0  0  0  0  0
    2.9980    3.6690   21.6760 H   0  0  0  0  0  0  0  0  0  0  0  0
    1.3270    4.1240   21.4610 H   0  0  0  0  0  0  0  0  0  0  0  0
    2.7430    1.8500   17.2970 O   0  0  0  0  0  0  0  0  0  0  0  0
    3.6220    2.5650   17.7590 C   0  0  0  0  0  0  0  0  0  0  0  0
    3.5050    3.2550   18.9530 N   0  0  0  0  0  0  0  0  0  0  0  0
    4.1290    4.0690   18.9730 H   0  0  0  0  0  0  0  0  0  0  0  0
    4.9530    2.7700   17.0690 C   0  0  0  0  0  0  0  0  0  0  0  0
    5.1010    1.9430   16.3630 H   0  0  0  0  0  0  0  0  0  0  0  0
    5.7580    2.6830   17.8080 H   0  0  0  0  0  0  0  0  0  0  0  0
    5.0490    4.1030   16.3290 C   0  0  0  0  0  0  0  0  0  0  0  0
    5.4590    3.8860   15.3340 H   0  0  0  0  0  0  0  0  0  0  0  0
    4.0450    4.5150   16.1690 H   0  0  0  0  0  0  0  0  0  0  0  0
    5.9110    5.1650   17.0170 C   0  0  2  0  0  0  0  0  0  0  0  0
    7.3330    4.7020   17.3020 C   0  0  0  0  0  0  0  0  0  0  0  0
    7.6770    5.4920   18.5390 C   0  0  0  0  0  0  0  0  0  0  0  0
    6.3620    5.4770   19.2820 C   0  0  0  0  0  0  0  0  0  0  0  0
    5.3310    5.5620   18.2810 O   0  0  0  0  0  0  0  0  0  0  0  0
    5.9430    6.0700   16.3980 H   0  0  0  0  0  0  0  0  0  0  0  0
    8.0140    4.8870   16.4650 H   0  0  0  0  0  0  0  0  0  0  0  0
    7.3640    3.6290   17.5310 H   0  0  0  0  0  0  0  0  0  0  0  0
    7.9410    6.5200   18.2640 H   0  0  0  0  0  0  0  0  0  0  0  0
    8.5000    5.0640   19.1160 H   0  0  0  0  0  0  0  0  0  0  0  0
    6.2600    6.3080   19.9860 H   0  0  0  0  0  0  0  0  0  0  0  0
    6.2210    4.5340   19.8250 H   0  0  0  0  0  0  0  0  0  0  0  0
    2.0570    7.7580   19.6810 C   0  0  0  0  0  0  0  0  0  0  0  0
    3.1260    7.8900   19.8840 H   0  0  0  0  0  0  0  0  0  0  0  0
    1.8850    7.9970   18.6240 H   0  0  0  0  0  0  0  0  0  0  0  0
    1.2050    8.6630   20.5290 C   0  0  0  0  0  0  0  0  0  0  0  0
    0.4130    9.6600   19.9340 C   0  0  0  0  0  0  0  0  0  0  0  0
   -0.3920   10.4850   20.7220 C   0  0  0  0  0  0  0  0  0  0  0  0
   -0.4120   10.3150   22.1010 C   0  0  0  0  0  0  0  0  0  0  0  0
   -1.1890   11.1030   22.8520 F   0  0  0  0  0  0  0  0  0  0  0  0
    0.3680    9.3400   22.7100 C   0  0  0  0  0  0  0  0  0  0  0  0
    1.1790    8.5160   21.9270 C   0  0  0  0  0  0  0  0  0  0  0  0
    0.4190    9.8200   18.8580 H   0  0  0  0  0  0  0  0  0  0  0  0
   -1.0070   11.2640   20.2750 H   0  0  0  0  0  0  0  0  0  0  0  0
    0.3400    9.2330   23.7910 H   0  0  0  0  0  0  0  0  0  0  0  0
    1.7920    7.7660   22.4270 H   0  0  0  0  0  0  0  0  0  0  0  0
  1  7  1  0  0  0  0
  1  6  1  0  0  0  0
  2  9  1  0  0  0  0
  2  1  1  0  0  0  0
  3  2  1  0  0  0  0
  3  4  1  0  0  0  0
  4 12  1  0  0  0  0
  4  5  1  0  0  0  0
  5  6  1  0  0  0  0
  5 13  1  0  0  0  0
  6 16  1  0  0  0  0
  6 15  1  0  0  0  0
  8  2  1  0  0  0  0
 10  3  1  0  0  0  0
 11  3  1  0  0  0  0
 14  5  1  0  0  0  0
 17 18  2  0  0  0  0
 18 19  1  0  0  0  0
 19 20  1  0  0  0  0
 19  1  1  0  0  0  0
 21 18  1  0  0  0  0
 21 23  1  0  0  0  0
 22 21  1  0  0  0  0
 24 27  1  0  0  0  0
 24 21  1  0  0  0  0
 25 24  1  0  0  0  0
 26 24  1  0  0  0  0
 27 32  1  6  0  0  0
 27 28  1  0  0  0  0
 27 31  1  0  0  0  0
 28 34  1  0  0  0  0
 28 29  1  0  0  0  0
 29 36  1  0  0  0  0
 29 30  1  0  0  0  0
 30 38  1  0  0  0  0
 30 37  1  0  0  0  0
 31 30  1  0  0  0  0
 33 28  1  0  0  0  0
 35 29  1  0  0  0  0
 39  4  1  0  0  0  0
 39 40  1  0  0  0  0
 39 42  1  0  0  0  0
 41 39  1  0  0  0  0
 42 48  1  0  0  0  0
 43 42  2  0  0  0  0
 43 44  1  0  0  0  0
 44 45  2  0  0  0  0
 45 47  1  0  0  0  0
 45 46  1  0  0  0  0
 47 51  1  0  0  0  0
 48 52  1  0  0  0  0
 48 47  2  0  0  0  0
 49 43  1  0  0  0  0
 50 44  1  0  0  0  0
M  END
>  <MODEL>
22

>  <REMARK>
 VINA RESULT:    -5.612      4.286      6.558
 INTER + INTRA:          -8.799
 INTER:                  -7.798
 INTRA:                  -1.001
 UNBOUND:                -1.219
  Name = 
  6 active torsions:
  status: ('A' for Active; 'I' for Inactive)
    1  A    between atoms: C_2  and  C_3
    2  A    between atoms: C_3  and  C_4
    3  A    between atoms: C_4  and  C_5
    4  A    between atoms: N_10  and  C_11
    5  A    between atoms: N_14  and  C_15
    6  A    between atoms: C_15  and  C_16
                            x       y       z     vdW  Elec       q    Type
                         _______ _______ _______ _____ _____    ______ ____

>  <TORSDO>
F 6

$$$$
=
 OpenBabel07192307433D

 52 54  0  0  1  0  0  0  0  0999 V2000
    0.7480   11.0540   20.3500 C   0  0  0  0  0  0  0  0  0  0  0  0
    1.6250   11.1980   19.1030 C   0  0  0  0  0  0  0  0  0  0  0  0
    1.5770    9.9510   18.2300 C   0  0  0  0  0  0  0  0  0  0  0  0
    1.9750    8.7340   19.0270 N   0  0  0  0  0  4  0  0  0  0  0  0
    1.1110    8.5560   20.2600 C   0  0  0  0  0  0  0  0  0  0  0  0
    1.1960    9.8050   21.1180 C   0  0  0  0  0  0  0  0  0  0  0  0
    0.8850   11.9330   20.9910 H   0  0  0  0  0  0  0  0  0  0  0  0
    1.3070   12.0650   18.5120 H   0  0  0  0  0  0  0  0  0  0  0  0
    2.6620   11.3860   19.4090 H   0  0  0  0  0  0  0  0  0  0  0  0
    2.2860   10.0440   17.4010 H   0  0  0  0  0  0  0  0  0  0  0  0
    0.5740    9.7720   17.8250 H   0  0  0  0  0  0  0  0  0  0  0  0
    2.9410    8.8650   19.3510 H   0  0  0  0  0  0  0  0  0  0  0  0
    1.4990    7.6990   20.8180 H   0  0  0  0  0  0  0  0  0  0  0  0
    0.0890    8.3430   19.9270 H   0  0  0  0  0  0  0  0  0  0  0  0
    0.6150    9.6530   22.0310 H   0  0  0  0  0  0  0  0  0  0  0  0
    2.2340    9.9450   21.4470 H   0  0  0  0  0  0  0  0  0  0  0  0
   -1.3600   12.5890   21.5180 O   0  0  0  0  0  0  0  0  0  0  0  0
   -1.5830   11.9090   20.5250 C   0  0  0  0  0  0  0  0  0  0  0  0
   -0.6610   11.0440   19.9620 N   0  0  0  0  0  0  0  0  0  0  0  0
   -0.8610   10.8830   18.9690 H   0  0  0  0  0  0  0  0  0  0  0  0
   -2.9100   11.9370   19.7980 C   0  0  0  0  0  0  0  0  0  0  0  0
   -3.4970   12.7750   20.1930 H   0  0  0  0  0  0  0  0  0  0  0  0
   -3.4730   11.0300   20.0440 H   0  0  0  0  0  0  0  0  0  0  0  0
   -2.7640   12.0800   18.2830 C   0  0  0  0  0  0  0  0  0  0  0  0
   -3.2960   12.9960   17.9980 H   0  0  0  0  0  0  0  0  0  0  0  0
   -1.7100   12.2390   18.0220 H   0  0  0  0  0  0  0  0  0  0  0  0
   -3.2980   10.9000   17.4670 C   0  0  2  0  0  0  0  0  0  0  0  0
   -2.2020   10.0100   16.8980 C   0  0  0  0  0  0  0  0  0  0  0  0
   -2.8450    9.4900   15.6360 C   0  0  0  0  0  0  0  0  0  0  0  0
   -3.6110   10.7040   15.1650 C   0  0  0  0  0  0  0  0  0  0  0  0
   -4.0930   11.3630   16.3510 O   0  0  0  0  0  0  0  0  0  0  0  0
   -3.9680   10.2950   18.0900 H   0  0  0  0  0  0  0  0  0  0  0  0
   -1.8990    9.2170   17.5880 H   0  0  0  0  0  0  0  0  0  0  0  0
   -1.3090   10.5930   16.6400 H   0  0  0  0  0  0  0  0  0  0  0  0
   -3.5410    8.6780   15.8800 H   0  0  0  0  0  0  0  0  0  0  0  0
   -2.1280    9.1230   14.8990 H   0  0  0  0  0  0  0  0  0  0  0  0
   -4.4540   10.4510   14.5160 H   0  0  0  0  0  0  0  0  0  0  0  0
   -2.9560   11.4080   14.6380 H   0  0  0  0  0  0  0  0  0  0  0  0
    1.9910    7.4950   18.1530 C   0  0  0  0  0  0  0  0  0  0  0  0
    1.1420    6.8700   18.4530 H   0  0  0  0  0  0  0  0  0  0  0  0
    1.8180    7.8220   17.1210 H   0  0  0  0  0  0  0  0  0  0  0  0
    3.2930    6.7430   18.2130 C   0  0  0  0  0  0  0  0  0  0  0  0
    3.5150    5.7800   19.2130 C   0  0  0  0  0  0  0  0  0  0  0  0
    4.7160    5.0690   19.2540 C   0  0  0  0  0  0  0  0  0  0  0  0
    5.6930    5.3130   18.2970 C   0  0  0  0  0  0  0  0  0  0  0  0
    6.8410    4.6270   18.3360 F   0  0  0  0  0  0  0  0  0  0  0  0
    5.4970    6.2650   17.3040 C   0  0  0  0  0  0  0  0  0  0  0  0
    4.3000    6.9830   17.2620 C   0  0  0  0  0  0  0  0  0  0  0  0
    2.7690    5.5780   19.9790 H   0  0  0  0  0  0  0  0  0  0  0  0
    4.9030    4.3250   20.0250 H   0  0  0  0  0  0  0  0  0  0  0  0
    6.2810    6.4420   16.5730 H   0  0  0  0  0  0  0  0  0  0  0  0
    4.1730    7.7320   16.4820 H   0  0  0  0  0  0  0  0  0  0  0  0
  1  7  1  0  0  0  0
  1  6  1  0  0  0  0
  2  9  1  0  0  0  0
  2  1  1  0  0  0  0
  3  4  1  0  0  0  0
  3  2  1  0  0  0  0
  4 12  1  0  0  0  0
  4  5  1  0  0  0  0
  5 13  1  0  0  0  0
  5  6  1  0  0  0  0
  6 16  1  0  0  0  0
  6 15  1  0  0  0  0
  8  2  1  0  0  0  0
 10  3  1  0  0  0  0
 11  3  1  0  0  0  0
 14  5  1  0  0  0  0
 18 17  2  0  0  0  0
 19  1  1  0  0  0  0
 19 18  1  0  0  0  0
 20 19  1  0  0  0  0
 21 23  1  0  0  0  0
 21 22  1  0  0  0  0
 21 18  1  0  0  0  0
 24 21  1  0  0  0  0
 25 24  1  0  0  0  0
 26 24  1  0  0  0  0
 27 32  1  1  0  0  0
 27 24  1  0  0  0  0
 28 27  1  0  0  0  0
 28 33  1  0  0  0  0
 29 35  1  0  0  0  0
 29 28  1  0  0  0  0
 30 29  1  0  0  0  0
 30 31  1  0  0  0  0
 31 27  1  0  0  0  0
 34 28  1  0  0  0  0
 36 29  1  0  0  0  0
 37 30  1  0  0  0  0
 38 30  1  0  0  0  0
 39 42  1  0  0  0  0
 39 40  1  0  0  0  0
 39  4  1  0  0  0  0
 41 39  1  0  0  0  0
 42 43  1  0  0  0  0
 43 44  2  0  0  0  0
 43 49  1  0  0  0  0
 44 50  1  0  0  0  0
 45 46  1  0  0  0  0
 45 44  1  0  0  0  0
 47 45  2  0  0  0  0
 48 47  1  0  0  0  0
 48 42  2  0  0  0  0
 51 47  1  0  0  0  0
 52 48  1  0  0  0  0
M  END
>  <MODEL>
23

>  <REMARK>
 VINA RESULT:    -5.504      6.728      8.984
 INTER + INTRA:          -8.653
 INTER:                  -7.813
 INTRA:                  -0.840
 UNBOUND:                -1.219
  Name = 
  6 active torsions:
  status: ('A' for Active; 'I' for Inactive)
    1  A    between atoms: C_2  and  C_3
    2  A    between atoms: C_3  and  C_4
    3  A    between atoms: C_4  and  C_5
    4  A    between atoms: N_10  and  C_11
    5  A    between atoms: N_14  and  C_15
    6  A    between atoms: C_15  and  C_16
                            x       y       z     vdW  Elec       q    Type
                         _______ _______ _______ _____ _____    ______ ____

>  <TORSDO>
F 6

$$$$
=
 OpenBabel07192307433D

 52 54  0  0  1  0  0  0  0  0999 V2000
   -2.1790   12.2690   18.3440 C   0  0  0  0  0  0  0  0  0  0  0  0
   -2.1320   10.7670   18.0520 C   0  0  0  0  0  0  0  0  0  0  0  0
   -1.3090   10.0150   19.0900 C   0  0  0  0  0  0  0  0  0  0  0  0
    0.0830   10.5890   19.1770 N   0  0  0  0  0  4  0  0  0  0  0  0
    0.0670   12.0730   19.4820 C   0  0  0  0  0  0  0  0  0  0  0  0
   -0.7420   12.7970   18.4210 C   0  0  0  0  0  0  0  0  0  0  0  0
   -2.7010   12.7790   17.5260 H   0  0  0  0  0  0  0  0  0  0  0  0
   -3.1450   10.3510   18.0250 H   0  0  0  0  0  0  0  0  0  0  0  0
   -1.6950   10.6040   17.0590 H   0  0  0  0  0  0  0  0  0  0  0  0
   -1.2110    8.9630   18.8030 H   0  0  0  0  0  0  0  0  0  0  0  0
   -1.7560   10.0730   20.0890 H   0  0  0  0  0  0  0  0  0  0  0  0
    0.5340   10.4740   18.2610 H   0  0  0  0  0  0  0  0  0  0  0  0
    1.1000   12.4290   19.4630 H   0  0  0  0  0  0  0  0  0  0  0  0
   -0.3470   12.2060   20.4880 H   0  0  0  0  0  0  0  0  0  0  0  0
   -0.7070   13.8720   18.6140 H   0  0  0  0  0  0  0  0  0  0  0  0
   -0.2600   12.6550   17.4440 H   0  0  0  0  0  0  0  0  0  0  0  0
   -5.0300   12.3000   18.5440 O   0  0  0  0  0  0  0  0  0  0  0  0
   -4.3500   12.3970   19.5570 C   0  0  0  0  0  0  0  0  0  0  0  0
   -2.9700   12.5120   19.5490 N   0  0  0  0  0  0  0  0  0  0  0  0
   -2.5660   12.1880   20.4350 H   0  0  0  0  0  0  0  0  0  0  0  0
   -4.9500   12.4070   20.9460 C   0  0  0  0  0  0  0  0  0  0  0  0
   -4.5730   11.5310   21.4860 H   0  0  0  0  0  0  0  0  0  0  0  0
   -6.0350   12.2710   20.8680 H   0  0  0  0  0  0  0  0  0  0  0  0
   -4.6270   13.6770   21.7320 C   0  0  0  0  0  0  0  0  0  0  0  0
   -4.2500   14.4110   21.0080 H   0  0  0  0  0  0  0  0  0  0  0  0
   -5.5470   14.1010   22.1540 H   0  0  0  0  0  0  0  0  0  0  0  0
   -3.6080   13.4990   22.8600 C   0  0  2  0  0  0  0  0  0  0  0  0
   -2.4140   14.4380   22.7530 C   0  0  0  0  0  0  0  0  0  0  0  0
   -1.3190   13.6260   23.3960 C   0  0  0  0  0  0  0  0  0  0  0  0
   -1.6510   12.2340   22.9120 C   0  0  0  0  0  0  0  0  0  0  0  0
   -3.0880   12.1500   22.8780 O   0  0  0  0  0  0  0  0  0  0  0  0
   -4.1010   13.6510   23.8290 H   0  0  0  0  0  0  0  0  0  0  0  0
   -2.5870   15.4010   23.2460 H   0  0  0  0  0  0  0  0  0  0  0  0
   -2.1560   14.6370   21.7050 H   0  0  0  0  0  0  0  0  0  0  0  0
   -1.4090   13.6750   24.4880 H   0  0  0  0  0  0  0  0  0  0  0  0
   -0.3130   13.9490   23.1160 H   0  0  0  0  0  0  0  0  0  0  0  0
   -1.2510   11.4490   23.5610 H   0  0  0  0  0  0  0  0  0  0  0  0
   -1.2850   12.0700   21.8910 H   0  0  0  0  0  0  0  0  0  0  0  0
    0.9310    9.8090   20.1630 C   0  0  0  0  0  0  0  0  0  0  0  0
    1.6330   10.5140   20.6220 H   0  0  0  0  0  0  0  0  0  0  0  0
    0.2610    9.4420   20.9500 H   0  0  0  0  0  0  0  0  0  0  0  0
    1.6380    8.6350   19.5400 C   0  0  0  0  0  0  0  0  0  0  0  0
    2.1070    8.7070   18.2160 C   0  0  0  0  0  0  0  0  0  0  0  0
    2.7800    7.6230   17.6480 C   0  0  0  0  0  0  0  0  0  0  0  0
    2.9910    6.4730   18.3970 C   0  0  0  0  0  0  0  0  0  0  0  0
    3.6410    5.4390   17.8510 F   0  0  0  0  0  0  0  0  0  0  0  0
    2.5300    6.3800   19.7050 C   0  0  0  0  0  0  0  0  0  0  0  0
    1.8510    7.4580   20.2770 C   0  0  0  0  0  0  0  0  0  0  0  0
    1.9450    9.5920   17.6060 H   0  0  0  0  0  0  0  0  0  0  0  0
    3.1430    7.6630   16.6230 H   0  0  0  0  0  0  0  0  0  0  0  0
    2.7010    5.4660   20.2660 H   0  0  0  0  0  0  0  0  0  0  0  0
    1.4890    7.3580   21.2990 H   0  0  0  0  0  0  0  0  0  0  0  0
  1  6  1  0  0  0  0
  1 19  1  0  0  0  0
  2  1  1  0  0  0  0
  2  3  1  0  0  0  0
  3  4  1  0  0  0  0
  3 11  1  0  0  0  0
  4  5  1  0  0  0  0
  4 39  1  0  0  0  0
  5 14  1  0  0  0  0
  6 15  1  0  0  0  0
  6  5  1  0  0  0  0
  7  1  1  0  0  0  0
  8  2  1  0  0  0  0
  9  2  1  0  0  0  0
 10  3  1  0  0  0  0
 12  4  1  0  0  0  0
 13  5  1  0  0  0  0
 16  6  1  0  0  0  0
 17 18  2  0  0  0  0
 18 21  1  0  0  0  0
 19 18  1  0  0  0  0
 19 20  1  0  0  0  0
 21 22  1  0  0  0  0
 21 24  1  0  0  0  0
 23 21  1  0  0  0  0
 24 26  1  0  0  0  0
 24 27  1  0  0  0  0
 25 24  1  0  0  0  0
 27 31  1  0  0  0  0
 27 32  1  1  0  0  0
 28 27  1  0  0  0  0
 28 33  1  0  0  0  0
 28 29  1  0  0  0  0
 29 35  1  0  0  0  0
 30 29  1  0  0  0  0
 30 37  1  0  0  0  0
 31 30  1  0  0  0  0
 34 28  1  0  0  0  0
 36 29  1  0  0  0  0
 38 30  1  0  0  0  0
 39 40  1  0  0  0  0
 39 41  1  0  0  0  0
 42 39  1  0  0  0  0
 42 48  1  0  0  0  0
 43 42  2  0  0  0  0
 44 43  1  0  0  0  0
 44 45  2  0  0  0  0
 45 47  1  0  0  0  0
 46 45  1  0  0  0  0
 47 51  1  0  0  0  0
 47 48  2  0  0  0  0
 48 52  1  0  0  0  0
 49 43  1  0  0  0  0
 50 44  1  0  0  0  0
M  END
>  <MODEL>
24

>  <REMARK>
 VINA RESULT:    -5.440      8.355     10.242
 INTER + INTRA:          -8.566
 INTER:                  -7.498
 INTRA:                  -1.068
 UNBOUND:                -1.219
  Name = 
  6 active torsions:
  status: ('A' for Active; 'I' for Inactive)
    1  A    between atoms: C_2  and  C_3
    2  A    between atoms: C_3  and  C_4
    3  A    between atoms: C_4  and  C_5
    4  A    between atoms: N_10  and  C_11
    5  A    between atoms: N_14  and  C_15
    6  A    between atoms: C_15  and  C_16
                            x       y       z     vdW  Elec       q    Type
                         _______ _______ _______ _____ _____    ______ ____

>  <TORSDO>
F 6

$$$$
=
 OpenBabel07192307433D

 52 54  0  0  1  0  0  0  0  0999 V2000
    2.5390    5.4390   18.1710 C   0  0  0  0  0  0  0  0  0  0  0  0
    2.0060    6.8550   17.9350 C   0  0  0  0  0  0  0  0  0  0  0  0
    2.2950    7.7730   19.1160 C   0  0  0  0  0  0  0  0  0  0  0  0
    1.7280    7.1910   20.3870 N   0  0  0  0  0  4  0  0  0  0  0  0
    2.2520    5.7950   20.6560 C   0  0  0  0  0  0  0  0  0  0  0  0
    1.9310    4.9010   19.4720 C   0  0  0  0  0  0  0  0  0  0  0  0
    2.2280    4.7940   17.3410 H   0  0  0  0  0  0  0  0  0  0  0  0
    2.4490    7.2830   17.0290 H   0  0  0  0  0  0  0  0  0  0  0  0
    0.9220    6.8120   17.7690 H   0  0  0  0  0  0  0  0  0  0  0  0
    1.8190    8.7470   18.9620 H   0  0  0  0  0  0  0  0  0  0  0  0
    3.3710    7.9200   19.2670 H   0  0  0  0  0  0  0  0  0  0  0  0
    0.7090    7.1160   20.2780 H   0  0  0  0  0  0  0  0  0  0  0  0
    1.7500    5.4160   21.5490 H   0  0  0  0  0  0  0  0  0  0  0  0
    3.3280    5.8700   20.8450 H   0  0  0  0  0  0  0  0  0  0  0  0
    2.2620    3.8830   19.6910 H   0  0  0  0  0  0  0  0  0  0  0  0
    0.8410    4.8390   19.3540 H   0  0  0  0  0  0  0  0  0  0  0  0
    4.2560    3.5820   16.8430 O   0  0  0  0  0  0  0  0  0  0  0  0
    4.7350    4.5670   17.3890 C   0  0  0  0  0  0  0  0  0  0  0  0
    4.0000    5.4550   18.1560 N   0  0  0  0  0  0  0  0  0  0  0  0
    4.4480    6.3760   18.1880 H   0  0  0  0  0  0  0  0  0  0  0  0
    6.2020    4.9230   17.2890 C   0  0  0  0  0  0  0  0  0  0  0  0
    6.6850    4.6440   18.2340 H   0  0  0  0  0  0  0  0  0  0  0  0
    6.3020    6.0120   17.2090 H   0  0  0  0  0  0  0  0  0  0  0  0
    6.9120    4.2350   16.1240 C   0  0  0  0  0  0  0  0  0  0  0  0
    7.9870    4.4020   16.2640 H   0  0  0  0  0  0  0  0  0  0  0  0
    6.7560    3.1500   16.1800 H   0  0  0  0  0  0  0  0  0  0  0  0
    6.4940    4.7190   14.7330 C   0  0  2  0  0  0  0  0  0  0  0  0
    6.0660    3.5930   13.8030 C   0  0  0  0  0  0  0  0  0  0  0  0
    6.4470    4.1430   12.4510 C   0  0  0  0  0  0  0  0  0  0  0  0
    7.7410    4.8550   12.7690 C   0  0  0  0  0  0  0  0  0  0  0  0
    7.5790    5.4200   14.0840 O   0  0  0  0  0  0  0  0  0  0  0  0
    5.6740    5.4420   14.8260 H   0  0  0  0  0  0  0  0  0  0  0  0
    5.0010    3.3540   13.8890 H   0  0  0  0  0  0  0  0  0  0  0  0
    6.6350    2.6760   13.9990 H   0  0  0  0  0  0  0  0  0  0  0  0
    5.6930    4.8650   12.1160 H   0  0  0  0  0  0  0  0  0  0  0  0
    6.5570    3.3750   11.6820 H   0  0  0  0  0  0  0  0  0  0  0  0
    7.9780    5.6480   12.0540 H   0  0  0  0  0  0  0  0  0  0  0  0
    8.5820    4.1520   12.8110 H   0  0  0  0  0  0  0  0  0  0  0  0
    1.9560    8.1260   21.5590 C   0  0  0  0  0  0  0  0  0  0  0  0
    2.0480    7.5070   22.4590 H   0  0  0  0  0  0  0  0  0  0  0  0
    2.9180    8.6250   21.3960 H   0  0  0  0  0  0  0  0  0  0  0  0
    0.8830    9.1720   21.7010 C   0  0  0  0  0  0  0  0  0  0  0  0
    0.1860    9.3190   22.9140 C   0  0  0  0  0  0  0  0  0  0  0  0
   -0.7940   10.3040   23.0490 C   0  0  0  0  0  0  0  0  0  0  0  0
   -1.0760   11.1460   21.9800 C   0  0  0  0  0  0  0  0  0  0  0  0
   -2.0120   12.0920   22.1150 F   0  0  0  0  0  0  0  0  0  0  0  0
   -0.4040   11.0140   20.7720 C   0  0  0  0  0  0  0  0  0  0  0  0
    0.5730   10.0270   20.6290 C   0  0  0  0  0  0  0  0  0  0  0  0
    0.3820    8.6650   23.7610 H   0  0  0  0  0  0  0  0  0  0  0  0
   -1.3440   10.4250   23.9800 H   0  0  0  0  0  0  0  0  0  0  0  0
   -0.6500   11.6800   19.9500 H   0  0  0  0  0  0  0  0  0  0  0  0
    1.0800    9.9340   19.6690 H   0  0  0  0  0  0  0  0  0  0  0  0
  1  6  1  0  0  0  0
  2  1  1  0  0  0  0
  2  3  1  0  0  0  0
  3 11  1  0  0  0  0
  3  4  1  0  0  0  0
  4  5  1  0  0  0  0
  4 39  1  0  0  0  0
  5 14  1  0  0  0  0
  5 13  1  0  0  0  0
  6 15  1  0  0  0  0
  6  5  1  0  0  0  0
  7  1  1  0  0  0  0
  8  2  1  0  0  0  0
  9  2  1  0  0  0  0
 10  3  1  0  0  0  0
 12  4  1  0  0  0  0
 16  6  1  0  0  0  0
 17 18  2  0  0  0  0
 18 19  1  0  0  0  0
 19  1  1  0  0  0  0
 19 20  1  0  0  0  0
 21 18  1  0  0  0  0
 21 22  1  0  0  0  0
 23 21  1  0  0  0  0
 24 26  1  0  0  0  0
 24 25  1  0  0  0  0
 24 21  1  0  0  0  0
 27 32  1  1  0  0  0
 27 24  1  0  0  0  0
 28 33  1  0  0  0  0
 28 34  1  0  0  0  0
 28 27  1  0  0  0  0
 29 30  1  0  0  0  0
 29 28  1  0  0  0  0
 30 38  1  0  0  0  0
 30 31  1  0  0  0  0
 31 27  1  0  0  0  0
 35 29  1  0  0  0  0
 36 29  1  0  0  0  0
 37 30  1  0  0  0  0
 39 42  1  0  0  0  0
 39 40  1  0  0  0  0
 41 39  1  0  0  0  0
 42 43  1  0  0  0  0
 43 44  2  0  0  0  0
 43 49  1  0  0  0  0
 44 50  1  0  0  0  0
 45 46  1  0  0  0  0
 45 44  1  0  0  0  0
 47 45  2  0  0  0  0
 48 47  1  0  0  0  0
 48 42  2  0  0  0  0
 51 47  1  0  0  0  0
 52 48  1  0  0  0  0
M  END
>  <MODEL>
25

>  <REMARK>
 VINA RESULT:    -5.408      4.821      7.074
 INTER + INTRA:          -8.523
 INTER:                  -8.229
 INTRA:                  -0.294
 UNBOUND:                -1.219
  Name = 
  6 active torsions:
  status: ('A' for Active; 'I' for Inactive)
    1  A    between atoms: C_2  and  C_3
    2  A    between atoms: C_3  and  C_4
    3  A    between atoms: C_4  and  C_5
    4  A    between atoms: N_10  and  C_11
    5  A    between atoms: N_14  and  C_15
    6  A    between atoms: C_15  and  C_16
                            x       y       z     vdW  Elec       q    Type
                         _______ _______ _______ _____ _____    ______ ____

>  <TORSDO>
F 6

$$$$
=
 OpenBabel07192307433D

 52 54  0  0  1  0  0  0  0  0999 V2000
    0.8070   10.2030   18.5370 C   0  0  0  0  0  0  0  0  0  0  0  0
    1.5640   11.2590   19.3470 C   0  0  0  0  0  0  0  0  0  0  0  0
    1.1040   11.2950   20.7990 C   0  0  0  0  0  0  0  0  0  0  0  0
   -0.3840   11.5260   20.8750 N   0  0  0  0  0  4  0  0  0  0  0  0
   -1.1610   10.4840   20.0960 C   0  0  0  0  0  0  0  0  0  0  0  0
   -0.6960   10.4860   18.6510 C   0  0  0  0  0  0  0  0  0  0  0  0
    1.1030   10.2750   17.4840 H   0  0  0  0  0  0  0  0  0  0  0  0
    2.6420   11.0650   19.3140 H   0  0  0  0  0  0  0  0  0  0  0  0
    1.4060   12.2460   18.8940 H   0  0  0  0  0  0  0  0  0  0  0  0
    1.5900   12.1220   21.3270 H   0  0  0  0  0  0  0  0  0  0  0  0
    1.3240   10.3580   21.3220 H   0  0  0  0  0  0  0  0  0  0  0  0
   -0.5890   12.4370   20.4490 H   0  0  0  0  0  0  0  0  0  0  0  0
   -2.2190   10.7530   20.1420 H   0  0  0  0  0  0  0  0  0  0  0  0
   -1.0080    9.5150   20.5850 H   0  0  0  0  0  0  0  0  0  0  0  0
   -1.2940    9.7710   18.0800 H   0  0  0  0  0  0  0  0  0  0  0  0
   -0.9050   11.4680   18.2080 H   0  0  0  0  0  0  0  0  0  0  0  0
    2.7260    8.4810   17.3050 O   0  0  0  0  0  0  0  0  0  0  0  0
    2.2200    8.1600   18.3720 C   0  0  0  0  0  0  0  0  0  0  0  0
    1.1990    8.8670   18.9830 N   0  0  0  0  0  0  0  0  0  0  0  0
    1.1860    8.7000   19.9950 H   0  0  0  0  0  0  0  0  0  0  0  0
    2.6580    6.9370   19.1470 C   0  0  0  0  0  0  0  0  0  0  0  0
    1.8510    6.6650   19.8380 H   0  0  0  0  0  0  0  0  0  0  0  0
    3.5180    7.1990   19.7750 H   0  0  0  0  0  0  0  0  0  0  0  0
    2.9950    5.7450   18.2520 C   0  0  0  0  0  0  0  0  0  0  0  0
    2.4460    5.8890   17.3120 H   0  0  0  0  0  0  0  0  0  0  0  0
    4.0610    5.7590   17.9950 H   0  0  0  0  0  0  0  0  0  0  0  0
    2.6510    4.3740   18.8410 C   0  0  2  0  0  0  0  0  0  0  0  0
    1.4640    3.7030   18.1630 C   0  0  0  0  0  0  0  0  0  0  0  0
    0.8850    2.8820   19.2870 C   0  0  0  0  0  0  0  0  0  0  0  0
    1.0810    3.8050   20.4670 C   0  0  0  0  0  0  0  0  0  0  0  0
    2.3330    4.4820   20.2470 O   0  0  0  0  0  0  0  0  0  0  0  0
    3.5250    3.7150   18.7740 H   0  0  0  0  0  0  0  0  0  0  0  0
    1.7560    3.1040   17.2940 H   0  0  0  0  0  0  0  0  0  0  0  0
    0.7250    4.4420   17.8300 H   0  0  0  0  0  0  0  0  0  0  0  0
    1.4750    1.9680   19.4240 H   0  0  0  0  0  0  0  0  0  0  0  0
   -0.1590    2.6010   19.1310 H   0  0  0  0  0  0  0  0  0  0  0  0
    1.1120    3.2750   21.4230 H   0  0  0  0  0  0  0  0  0  0  0  0
    0.2940    4.5690   20.5100 H   0  0  0  0  0  0  0  0  0  0  0  0
   -0.8440   11.6250   22.3170 C   0  0  0  0  0  0  0  0  0  0  0  0
   -1.1000   10.6140   22.6510 H   0  0  0  0  0  0  0  0  0  0  0  0
    0.0130   11.9660   22.9100 H   0  0  0  0  0  0  0  0  0  0  0  0
   -1.9840   12.5890   22.5110 C   0  0  0  0  0  0  0  0  0  0  0  0
   -2.0030   13.8180   21.8280 C   0  0  0  0  0  0  0  0  0  0  0  0
   -3.0710   14.7000   21.9940 C   0  0  0  0  0  0  0  0  0  0  0  0
   -4.1220   14.3590   22.8360 C   0  0  0  0  0  0  0  0  0  0  0  0
   -5.1470   15.2050   22.9890 F   0  0  0  0  0  0  0  0  0  0  0  0
   -4.1200   13.1530   23.5260 C   0  0  0  0  0  0  0  0  0  0  0  0
   -3.0510   12.2690   23.3670 C   0  0  0  0  0  0  0  0  0  0  0  0
   -1.1870   14.1120   21.1710 H   0  0  0  0  0  0  0  0  0  0  0  0
   -3.0960   15.6570   21.4750 H   0  0  0  0  0  0  0  0  0  0  0  0
   -4.9510   12.9140   24.1840 H   0  0  0  0  0  0  0  0  0  0  0  0
   -3.0650   11.3340   23.9270 H   0  0  0  0  0  0  0  0  0  0  0  0
  1  6  1  0  0  0  0
  1 19  1  0  0  0  0
  1  2  1  0  0  0  0
  2  3  1  0  0  0  0
  3  4  1  0  0  0  0
  3 11  1  0  0  0  0
  3 10  1  0  0  0  0
  4 39  1  0  0  0  0
  5 13  1  0  0  0  0
  5 14  1  0  0  0  0
  5  4  1  0  0  0  0
  6  5  1  0  0  0  0
  7  1  1  0  0  0  0
  8  2  1  0  0  0  0
  9  2  1  0  0  0  0
 12  4  1  0  0  0  0
 15  6  1  0  0  0  0
 16  6  1  0  0  0  0
 17 18  2  0  0  0  0
 18 19  1  0  0  0  0
 18 21  1  0  0  0  0
 19 20  1  0  0  0  0
 21 23  1  0  0  0  0
 21 22  1  0  0  0  0
 24 27  1  0  0  0  0
 24 21  1  0  0  0  0
 25 24  1  0  0  0  0
 26 24  1  0  0  0  0
 27 32  1  6  0  0  0
 27 31  1  0  0  0  0
 28 27  1  0  0  0  0
 28 29  1  0  0  0  0
 29 35  1  0  0  0  0
 29 30  1  0  0  0  0
 30 38  1  0  0  0  0
 30 37  1  0  0  0  0
 31 30  1  0  0  0  0
 33 28  1  0  0  0  0
 34 28  1  0  0  0  0
 36 29  1  0  0  0  0
 39 42  1  0  0  0  0
 39 40  1  0  0  0  0
 39 41  1  0  0  0  0
 42 48  1  0  0  0  0
 43 44  1  0  0  0  0
 43 42  2  0  0  0  0
 44 45  2  0  0  0  0
 45 46  1  0  0  0  0
 45 47  1  0  0  0  0
 47 51  1  0  0  0  0
 48 47  2  0  0  0  0
 48 52  1  0  0  0  0
 49 43  1  0  0  0  0
 50 44  1  0  0  0  0
M  END
>  <MODEL>
26

>  <REMARK>
 VINA RESULT:    -5.370      7.457     10.105
 INTER + INTRA:          -8.472
 INTER:                  -7.731
 INTRA:                  -0.742
 UNBOUND:                -1.219
  Name = 
  6 active torsions:
  status: ('A' for Active; 'I' for Inactive)
    1  A    between atoms: C_2  and  C_3
    2  A    between atoms: C_3  and  C_4
    3  A    between atoms: C_4  and  C_5
    4  A    between atoms: N_10  and  C_11
    5  A    between atoms: N_14  and  C_15
    6  A    between atoms: C_15  and  C_16
                            x       y       z     vdW  Elec       q    Type
                         _______ _______ _______ _____ _____    ______ ____

>  <TORSDO>
F 6

$$$$
=
 OpenBabel07192307433D

 52 54  0  0  1  0  0  0  0  0999 V2000
    1.5050    5.5940   19.8400 C   0  0  0  0  0  0  0  0  0  0  0  0
    2.1400    4.2680   20.2680 C   0  0  0  0  0  0  0  0  0  0  0  0
    3.6590    4.3060   20.1540 C   0  0  0  0  0  0  0  0  0  0  0  0
    4.0740    4.6710   18.7510 N   0  0  0  0  0  4  0  0  0  0  0  0
    3.4730    5.9890   18.3060 C   0  0  0  0  0  0  0  0  0  0  0  0
    1.9610    5.9140   18.4110 C   0  0  0  0  0  0  0  0  0  0  0  0
    0.4130    5.4900   19.8490 H   0  0  0  0  0  0  0  0  0  0  0  0
    1.8620    4.0270   21.3000 H   0  0  0  0  0  0  0  0  0  0  0  0
    1.7510    3.4590   19.6370 H   0  0  0  0  0  0  0  0  0  0  0  0
    4.0770    3.3180   20.3720 H   0  0  0  0  0  0  0  0  0  0  0  0
    4.1030    5.0410   20.8360 H   0  0  0  0  0  0  0  0  0  0  0  0
    3.7200    3.9470   18.1140 H   0  0  0  0  0  0  0  0  0  0  0  0
    3.7620    6.1530   17.2650 H   0  0  0  0  0  0  0  0  0  0  0  0
    3.8980    6.7810   18.9330 H   0  0  0  0  0  0  0  0  0  0  0  0
    1.5280    6.8450   18.0400 H   0  0  0  0  0  0  0  0  0  0  0  0
    1.5930    5.1270   17.7390 H   0  0  0  0  0  0  0  0  0  0  0  0
    0.8800    8.3760   19.6510 O   0  0  0  0  0  0  0  0  0  0  0  0
    1.3820    7.9350   20.6760 C   0  0  0  0  0  0  0  0  0  0  0  0
    1.8280    6.6320   20.8160 N   0  0  0  0  0  0  0  0  0  0  0  0
    1.8360    6.3470   21.8020 H   0  0  0  0  0  0  0  0  0  0  0  0
    1.5780    8.7790   21.9170 C   0  0  0  0  0  0  0  0  0  0  0  0
    2.1770    9.6550   21.6410 H   0  0  0  0  0  0  0  0  0  0  0  0
    2.1800    8.2170   22.6410 H   0  0  0  0  0  0  0  0  0  0  0  0
    0.2640    9.2310   22.5520 C   0  0  0  0  0  0  0  0  0  0  0  0
   -0.5320    8.6240   22.1000 H   0  0  0  0  0  0  0  0  0  0  0  0
    0.2650    8.9950   23.6230 H   0  0  0  0  0  0  0  0  0  0  0  0
   -0.0630   10.7160   22.3780 C   0  0  2  0  0  0  0  0  0  0  0  0
   -1.3270   11.1480   23.1080 C   0  0  0  0  0  0  0  0  0  0  0  0
   -1.8210   12.2760   22.2360 C   0  0  0  0  0  0  0  0  0  0  0  0
   -1.4880   11.7580   20.8560 C   0  0  0  0  0  0  0  0  0  0  0  0
   -0.2430   11.0450   20.9820 O   0  0  0  0  0  0  0  0  0  0  0  0
    0.7820   11.3220   22.7290 H   0  0  0  0  0  0  0  0  0  0  0  0
   -1.1370   11.4520   24.1420 H   0  0  0  0  0  0  0  0  0  0  0  0
   -2.0730   10.3440   23.1240 H   0  0  0  0  0  0  0  0  0  0  0  0
   -1.2480   13.1870   22.4440 H   0  0  0  0  0  0  0  0  0  0  0  0
   -2.8830   12.4960   22.3660 H   0  0  0  0  0  0  0  0  0  0  0  0
   -1.3820   12.5570   20.1150 H   0  0  0  0  0  0  0  0  0  0  0  0
   -2.2440   11.0460   20.5040 H   0  0  0  0  0  0  0  0  0  0  0  0
    5.5830    4.6520   18.6100 C   0  0  0  0  0  0  0  0  0  0  0  0
    5.9760    5.5160   19.1570 H   0  0  0  0  0  0  0  0  0  0  0  0
    5.9470    3.7460   19.1100 H   0  0  0  0  0  0  0  0  0  0  0  0
    6.0460    4.6340   17.1770 C   0  0  0  0  0  0  0  0  0  0  0  0
    5.3460    3.8890   16.2120 C   0  0  0  0  0  0  0  0  0  0  0  0
    5.7650    3.8920   14.8800 C   0  0  0  0  0  0  0  0  0  0  0  0
    6.8760    4.6390   14.5090 C   0  0  0  0  0  0  0  0  0  0  0  0
    7.2710    4.6430   13.2310 F   0  0  0  0  0  0  0  0  0  0  0  0
    7.5850    5.3770   15.4480 C   0  0  0  0  0  0  0  0  0  0  0  0
    7.1740    5.3740   16.7820 C   0  0  0  0  0  0  0  0  0  0  0  0
    4.4800    3.2880   16.4800 H   0  0  0  0  0  0  0  0  0  0  0  0
    5.2360    3.3150   14.1230 H   0  0  0  0  0  0  0  0  0  0  0  0
    8.4550    5.9460   15.1320 H   0  0  0  0  0  0  0  0  0  0  0  0
    7.7510    5.9510   17.5040 H   0  0  0  0  0  0  0  0  0  0  0  0
  1  7  1  0  0  0  0
  1  2  1  0  0  0  0
  1 19  1  0  0  0  0
  2  8  1  0  0  0  0
  3  2  1  0  0  0  0
  3 10  1  0  0  0  0
  3 11  1  0  0  0  0
  4  3  1  0  0  0  0
  5  6  1  0  0  0  0
  5  4  1  0  0  0  0
  5 14  1  0  0  0  0
  6  1  1  0  0  0  0
  9  2  1  0  0  0  0
 12  4  1  0  0  0  0
 13  5  1  0  0  0  0
 15  6  1  0  0  0  0
 16  6  1  0  0  0  0
 17 18  2  0  0  0  0
 18 19  1  0  0  0  0
 18 21  1  0  0  0  0
 19 20  1  0  0  0  0
 21 24  1  0  0  0  0
 21 23  1  0  0  0  0
 22 21  1  0  0  0  0
 24 26  1  0  0  0  0
 25 24  1  0  0  0  0
 27 24  1  0  0  0  0
 27 32  1  1  0  0  0
 27 28  1  0  0  0  0
 28 34  1  0  0  0  0
 28 33  1  0  0  0  0
 29 36  1  0  0  0  0
 29 35  1  0  0  0  0
 29 28  1  0  0  0  0
 30 31  1  0  0  0  0
 30 29  1  0  0  0  0
 31 27  1  0  0  0  0
 37 30  1  0  0  0  0
 38 30  1  0  0  0  0
 39  4  1  0  0  0  0
 39 41  1  0  0  0  0
 39 40  1  0  0  0  0
 42 39  1  0  0  0  0
 43 49  1  0  0  0  0
 43 42  2  0  0  0  0
 44 43  1  0  0  0  0
 45 44  2  0  0  0  0
 45 47  1  0  0  0  0
 46 45  1  0  0  0  0
 47 48  2  0  0  0  0
 48 42  1  0  0  0  0
 48 52  1  0  0  0  0
 50 44  1  0  0  0  0
 51 47  1  0  0  0  0
M  END
>  <MODEL>
27

>  <REMARK>
 VINA RESULT:    -5.370      5.075      7.687
 INTER + INTRA:          -8.472
 INTER:                  -8.167
 INTRA:                  -0.305
 UNBOUND:                -1.219
  Name = 
  6 active torsions:
  status: ('A' for Active; 'I' for Inactive)
    1  A    between atoms: C_2  and  C_3
    2  A    between atoms: C_3  and  C_4
    3  A    between atoms: C_4  and  C_5
    4  A    between atoms: N_10  and  C_11
    5  A    between atoms: N_14  and  C_15
    6  A    between atoms: C_15  and  C_16
                            x       y       z     vdW  Elec       q    Type
                         _______ _______ _______ _____ _____    ______ ____

>  <TORSDO>
F 6

$$$$
=
 OpenBabel07192307433D

 52 54  0  0  1  0  0  0  0  0999 V2000
    1.0350    8.3150   21.6320 C   0  0  0  0  0  0  0  0  0  0  0  0
   -0.4150    8.3560   21.1410 C   0  0  0  0  0  0  0  0  0  0  0  0
   -0.6470    9.4980   20.1610 C   0  0  0  0  0  0  0  0  0  0  0  0
   -0.2540   10.8150   20.7820 N   0  0  0  0  0  4  0  0  0  0  0  0
    1.1830   10.8090   21.2620 C   0  0  0  0  0  0  0  0  0  0  0  0
    1.3790    9.6750   22.2520 C   0  0  0  0  0  0  0  0  0  0  0  0
    1.1330    7.5400   22.4020 H   0  0  0  0  0  0  0  0  0  0  0  0
   -0.6820    7.4080   20.6610 H   0  0  0  0  0  0  0  0  0  0  0  0
   -1.0860    8.4770   22.0010 H   0  0  0  0  0  0  0  0  0  0  0  0
   -1.7100    9.5630   19.9040 H   0  0  0  0  0  0  0  0  0  0  0  0
   -0.0630    9.3750   19.2410 H   0  0  0  0  0  0  0  0  0  0  0  0
   -0.8470   10.9710   21.6060 H   0  0  0  0  0  0  0  0  0  0  0  0
    1.3740   11.7650   21.7560 H   0  0  0  0  0  0  0  0  0  0  0  0
    1.8320   10.7160   20.3840 H   0  0  0  0  0  0  0  0  0  0  0  0
    2.4010    9.7060   22.6360 H   0  0  0  0  0  0  0  0  0  0  0  0
    0.7290    9.8410   23.1210 H   0  0  0  0  0  0  0  0  0  0  0  0
    1.6140    5.6500   20.7790 O   0  0  0  0  0  0  0  0  0  0  0  0
    2.0410    6.5990   20.1360 C   0  0  0  0  0  0  0  0  0  0  0  0
    1.9150    7.9180   20.5350 N   0  0  0  0  0  0  0  0  0  0  0  0
    1.9610    8.5550   19.7320 H   0  0  0  0  0  0  0  0  0  0  0  0
    2.7690    6.4310   18.8200 C   0  0  0  0  0  0  0  0  0  0  0  0
    3.8000    6.7800   18.9540 H   0  0  0  0  0  0  0  0  0  0  0  0
    2.3190    7.0970   18.0740 H   0  0  0  0  0  0  0  0  0  0  0  0
    2.7740    4.9890   18.3140 C   0  0  0  0  0  0  0  0  0  0  0  0
    2.1290    4.4140   18.9900 H   0  0  0  0  0  0  0  0  0  0  0  0
    2.3090    4.9390   17.3210 H   0  0  0  0  0  0  0  0  0  0  0  0
    4.1550    4.3330   18.2410 C   0  0  2  0  0  0  0  0  0  0  0  0
    5.2350    5.1090   18.9820 C   0  0  0  0  0  0  0  0  0  0  0  0
    6.4690    4.7650   18.1850 C   0  0  0  0  0  0  0  0  0  0  0  0
    5.9220    4.7420   16.7770 C   0  0  0  0  0  0  0  0  0  0  0  0
    4.5920    4.1990   16.8690 O   0  0  0  0  0  0  0  0  0  0  0  0
    4.1000    3.3150   18.6450 H   0  0  0  0  0  0  0  0  0  0  0  0
    5.3090    4.8290   20.0370 H   0  0  0  0  0  0  0  0  0  0  0  0
    5.0560    6.1900   18.9310 H   0  0  0  0  0  0  0  0  0  0  0  0
    6.8280    3.7680   18.4650 H   0  0  0  0  0  0  0  0  0  0  0  0
    7.2870    5.4780   18.3160 H   0  0  0  0  0  0  0  0  0  0  0  0
    6.5230    4.1320   16.0960 H   0  0  0  0  0  0  0  0  0  0  0  0
    5.8390    5.7560   16.3650 H   0  0  0  0  0  0  0  0  0  0  0  0
   -0.5390   11.9670   19.8370 C   0  0  0  0  0  0  0  0  0  0  0  0
   -0.6050   12.8790   20.4410 H   0  0  0  0  0  0  0  0  0  0  0  0
    0.3290   12.0670   19.1730 H   0  0  0  0  0  0  0  0  0  0  0  0
   -1.7710   11.7560   18.9990 C   0  0  0  0  0  0  0  0  0  0  0  0
   -3.0410   12.0810   19.5040 C   0  0  0  0  0  0  0  0  0  0  0  0
   -4.1800   11.9030   18.7160 C   0  0  0  0  0  0  0  0  0  0  0  0
   -4.0540   11.4070   17.4250 C   0  0  0  0  0  0  0  0  0  0  0  0
   -5.1470   11.2430   16.6710 F   0  0  0  0  0  0  0  0  0  0  0  0
   -2.8080   11.0730   16.9080 C   0  0  0  0  0  0  0  0  0  0  0  0
   -1.6660   11.2440   17.6940 C   0  0  0  0  0  0  0  0  0  0  0  0
   -3.1670   12.4620   20.5150 H   0  0  0  0  0  0  0  0  0  0  0  0
   -5.1700   12.1470   19.0970 H   0  0  0  0  0  0  0  0  0  0  0  0
   -2.7380   10.6800   15.8980 H   0  0  0  0  0  0  0  0  0  0  0  0
   -0.7020   10.9640   17.2720 H   0  0  0  0  0  0  0  0  0  0  0  0
  1  6  1  0  0  0  0
  1  7  1  0  0  0  0
  2  1  1  0  0  0  0
  2  9  1  0  0  0  0
  3  4  1  0  0  0  0
  3  2  1  0  0  0  0
  4  5  1  0  0  0  0
  4 12  1  0  0  0  0
  5 13  1  0  0  0  0
  5  6  1  0  0  0  0
  6 15  1  0  0  0  0
  6 16  1  0  0  0  0
  8  2  1  0  0  0  0
 10  3  1  0  0  0  0
 11  3  1  0  0  0  0
 14  5  1  0  0  0  0
 18 19  1  0  0  0  0
 18 17  2  0  0  0  0
 19  1  1  0  0  0  0
 20 19  1  0  0  0  0
 21 22  1  0  0  0  0
 21 18  1  0  0  0  0
 23 21  1  0  0  0  0
 24 21  1  0  0  0  0
 24 25  1  0  0  0  0
 26 24  1  0  0  0  0
 27 24  1  0  0  0  0
 27 32  1  1  0  0  0
 27 28  1  0  0  0  0
 28 33  1  0  0  0  0
 29 36  1  0  0  0  0
 29 35  1  0  0  0  0
 29 28  1  0  0  0  0
 30 31  1  0  0  0  0
 30 29  1  0  0  0  0
 31 27  1  0  0  0  0
 34 28  1  0  0  0  0
 37 30  1  0  0  0  0
 38 30  1  0  0  0  0
 39 40  1  0  0  0  0
 39  4  1  0  0  0  0
 41 39  1  0  0  0  0
 42 43  1  0  0  0  0
 42 39  1  0  0  0  0
 43 49  1  0  0  0  0
 44 50  1  0  0  0  0
 44 43  2  0  0  0  0
 45 44  1  0  0  0  0
 46 45  1  0  0  0  0
 47 45  2  0  0  0  0
 47 48  1  0  0  0  0
 48 42  2  0  0  0  0
 51 47  1  0  0  0  0
 52 48  1  0  0  0  0
M  END
>  <MODEL>
28

>  <REMARK>
 VINA RESULT:    -5.275      6.341      8.718
 INTER + INTRA:          -8.344
 INTER:                  -7.905
 INTRA:                  -0.439
 UNBOUND:                -1.219
  Name = 
  6 active torsions:
  status: ('A' for Active; 'I' for Inactive)
    1  A    between atoms: C_2  and  C_3
    2  A    between atoms: C_3  and  C_4
    3  A    between atoms: C_4  and  C_5
    4  A    between atoms: N_10  and  C_11
    5  A    between atoms: N_14  and  C_15
    6  A    between atoms: C_15  and  C_16
                            x       y       z     vdW  Elec       q    Type
                         _______ _______ _______ _____ _____    ______ ____

>  <TORSDO>
F 6

$$$$
=
 OpenBabel07192307433D

 52 54  0  0  1  0  0  0  0  0999 V2000
   -0.2280    9.7300   22.3710 C   0  0  0  0  0  0  0  0  0  0  0  0
    1.2490    9.5740   22.7440 C   0  0  0  0  0  0  0  0  0  0  0  0
    2.0660    9.0060   21.5910 C   0  0  0  0  0  0  0  0  0  0  0  0
    1.4870    7.6910   21.1310 N   0  0  0  0  0  4  0  0  0  0  0  0
    0.0290    7.8200   20.7390 C   0  0  0  0  0  0  0  0  0  0  0  0
   -0.7620    8.3680   21.9130 C   0  0  0  0  0  0  0  0  0  0  0  0
   -0.7910   10.0520   23.2560 H   0  0  0  0  0  0  0  0  0  0  0  0
    1.6710   10.5390   23.0440 H   0  0  0  0  0  0  0  0  0  0  0  0
    1.3360    8.9060   23.6110 H   0  0  0  0  0  0  0  0  0  0  0  0
    3.0940    8.8130   21.9160 H   0  0  0  0  0  0  0  0  0  0  0  0
    2.0840    9.6820   20.7290 H   0  0  0  0  0  0  0  0  0  0  0  0
    1.5320    7.0300   21.9150 H   0  0  0  0  0  0  0  0  0  0  0  0
   -0.3370    6.8230   20.4830 H   0  0  0  0  0  0  0  0  0  0  0  0
   -0.0270    8.4670   19.8570 H   0  0  0  0  0  0  0  0  0  0  0  0
   -1.8200    8.4100   21.6450 H   0  0  0  0  0  0  0  0  0  0  0  0
   -0.6950    7.6620   22.7510 H   0  0  0  0  0  0  0  0  0  0  0  0
   -2.1880   11.8100   22.3700 O   0  0  0  0  0  0  0  0  0  0  0  0
   -1.2950   11.8170   21.5340 C   0  0  0  0  0  0  0  0  0  0  0  0
   -0.3750   10.7940   21.3810 N   0  0  0  0  0  0  0  0  0  0  0  0
    0.4870   11.1340   20.9420 H   0  0  0  0  0  0  0  0  0  0  0  0
   -1.1000   12.9580   20.5590 C   0  0  0  0  0  0  0  0  0  0  0  0
   -0.1030   13.3830   20.7280 H   0  0  0  0  0  0  0  0  0  0  0  0
   -1.8130   13.7570   20.7940 H   0  0  0  0  0  0  0  0  0  0  0  0
   -1.2390   12.5320   19.0980 C   0  0  0  0  0  0  0  0  0  0  0  0
   -1.5460   13.4240   18.5360 H   0  0  0  0  0  0  0  0  0  0  0  0
   -0.2600   12.2360   18.7000 H   0  0  0  0  0  0  0  0  0  0  0  0
   -2.2350   11.3980   18.8450 C   0  0  2  0  0  0  0  0  0  0  0  0
   -1.7250   10.3500   17.8660 C   0  0  0  0  0  0  0  0  0  0  0  0
   -3.0050    9.8630   17.2340 C   0  0  0  0  0  0  0  0  0  0  0  0
   -3.7990   11.1450   17.1350 C   0  0  0  0  0  0  0  0  0  0  0  0
   -3.4770   11.9110   18.3110 O   0  0  0  0  0  0  0  0  0  0  0  0
   -2.4880   10.9120   19.7950 H   0  0  0  0  0  0  0  0  0  0  0  0
   -1.1540    9.5550   18.3560 H   0  0  0  0  0  0  0  0  0  0  0  0
   -1.0850   10.8000   17.0970 H   0  0  0  0  0  0  0  0  0  0  0  0
   -3.5090    9.1600   17.9070 H   0  0  0  0  0  0  0  0  0  0  0  0
   -2.8570    9.3750   16.2680 H   0  0  0  0  0  0  0  0  0  0  0  0
   -4.8790   10.9750   17.0900 H   0  0  0  0  0  0  0  0  0  0  0  0
   -3.4960   11.7350   16.2610 H   0  0  0  0  0  0  0  0  0  0  0  0
    2.3280    7.0860   20.0240 C   0  0  0  0  0  0  0  0  0  0  0  0
    2.2540    7.7490   19.1550 H   0  0  0  0  0  0  0  0  0  0  0  0
    3.3700    7.0950   20.3640 H   0  0  0  0  0  0  0  0  0  0  0  0
    1.9380    5.6710   19.6880 C   0  0  0  0  0  0  0  0  0  0  0  0
    1.4990    4.7950   20.6960 C   0  0  0  0  0  0  0  0  0  0  0  0
    1.1190    3.4890   20.3780 C   0  0  0  0  0  0  0  0  0  0  0  0
    1.1690    3.0590   19.0580 C   0  0  0  0  0  0  0  0  0  0  0  0
    0.7980    1.8100   18.7560 F   0  0  0  0  0  0  0  0  0  0  0  0
    1.6050    3.9070   18.0480 C   0  0  0  0  0  0  0  0  0  0  0  0
    1.9920    5.2120   18.3610 C   0  0  0  0  0  0  0  0  0  0  0  0
    1.4610    5.1050   21.7380 H   0  0  0  0  0  0  0  0  0  0  0  0
    0.7830    2.7990   21.1490 H   0  0  0  0  0  0  0  0  0  0  0  0
    1.6420    3.5430   17.0250 H   0  0  0  0  0  0  0  0  0  0  0  0
    2.3410    5.8560   17.5550 H   0  0  0  0  0  0  0  0  0  0  0  0
  1  2  1  0  0  0  0
  1  7  1  0  0  0  0
  2  8  1  0  0  0  0
  2  9  1  0  0  0  0
  3 10  1  0  0  0  0
  3  2  1  0  0  0  0
  4  3  1  0  0  0  0
  4 12  1  0  0  0  0
  5  4  1  0  0  0  0
  5  6  1  0  0  0  0
  6  1  1  0  0  0  0
  6 16  1  0  0  0  0
 11  3  1  0  0  0  0
 13  5  1  0  0  0  0
 14  5  1  0  0  0  0
 15  6  1  0  0  0  0
 18 17  2  0  0  0  0
 19 18  1  0  0  0  0
 19  1  1  0  0  0  0
 20 19  1  0  0  0  0
 21 22  1  0  0  0  0
 21 23  1  0  0  0  0
 21 18  1  0  0  0  0
 24 21  1  0  0  0  0
 25 24  1  0  0  0  0
 26 24  1  0  0  0  0
 27 24  1  0  0  0  0
 27 32  1  1  0  0  0
 28 33  1  0  0  0  0
 28 27  1  0  0  0  0
 29 28  1  0  0  0  0
 29 35  1  0  0  0  0
 30 29  1  0  0  0  0
 30 31  1  0  0  0  0
 31 27  1  0  0  0  0
 34 28  1  0  0  0  0
 36 29  1  0  0  0  0
 37 30  1  0  0  0  0
 38 30  1  0  0  0  0
 39 41  1  0  0  0  0
 39  4  1  0  0  0  0
 40 39  1  0  0  0  0
 42 39  1  0  0  0  0
 42 43  1  0  0  0  0
 43 49  1  0  0  0  0
 44 43  2  0  0  0  0
 44 50  1  0  0  0  0
 45 44  1  0  0  0  0
 46 45  1  0  0  0  0
 47 48  1  0  0  0  0
 47 45  2  0  0  0  0
 48 42  2  0  0  0  0
 51 47  1  0  0  0  0
 52 48  1  0  0  0  0
M  END
>  <MODEL>
29

>  <REMARK>
 VINA RESULT:    -5.259      6.421      8.633
 INTER + INTRA:          -8.323
 INTER:                  -7.733
 INTRA:                  -0.590
 UNBOUND:                -1.219
  Name = 
  6 active torsions:
  status: ('A' for Active; 'I' for Inactive)
    1  A    between atoms: C_2  and  C_3
    2  A    between atoms: C_3  and  C_4
    3  A    between atoms: C_4  and  C_5
    4  A    between atoms: N_10  and  C_11
    5  A    between atoms: N_14  and  C_15
    6  A    between atoms: C_15  and  C_16
                            x       y       z     vdW  Elec       q    Type
                         _______ _______ _______ _____ _____    ______ ____

>  <TORSDO>
F 6

$$$$
=
 OpenBabel07192307433D

 52 54  0  0  1  0  0  0  0  0999 V2000
   -0.9760   10.4040   20.0010 C   0  0  0  0  0  0  0  0  0  0  0  0
   -0.1740    9.3230   20.7320 C   0  0  0  0  0  0  0  0  0  0  0  0
    1.2350    9.1880   20.1710 C   0  0  0  0  0  0  0  0  0  0  0  0
    1.1890    8.9120   18.6890 N   0  0  0  0  0  4  0  0  0  0  0  0
    0.4160    9.9760   17.9370 C   0  0  0  0  0  0  0  0  0  0  0  0
   -0.9890   10.0730   18.5040 C   0  0  0  0  0  0  0  0  0  0  0  0
   -2.0070   10.4010   20.3740 H   0  0  0  0  0  0  0  0  0  0  0  0
   -0.1170    9.5490   21.8030 H   0  0  0  0  0  0  0  0  0  0  0  0
   -0.6940    8.3610   20.6380 H   0  0  0  0  0  0  0  0  0  0  0  0
    1.7500    8.3450   20.6440 H   0  0  0  0  0  0  0  0  0  0  0  0
    1.8260   10.0990   20.3230 H   0  0  0  0  0  0  0  0  0  0  0  0
    0.6980    8.0220   18.5440 H   0  0  0  0  0  0  0  0  0  0  0  0
    0.3690    9.6760   16.8870 H   0  0  0  0  0  0  0  0  0  0  0  0
    0.9680   10.9180   18.0230 H   0  0  0  0  0  0  0  0  0  0  0  0
   -1.5600   10.8020   17.9260 H   0  0  0  0  0  0  0  0  0  0  0  0
   -1.5010    9.1120   18.3590 H   0  0  0  0  0  0  0  0  0  0  0  0
   -2.4320   12.8500   20.2460 O   0  0  0  0  0  0  0  0  0  0  0  0
   -1.2390   12.8250   20.5180 C   0  0  0  0  0  0  0  0  0  0  0  0
   -0.4280   11.7210   20.3170 N   0  0  0  0  0  0  0  0  0  0  0  0
    0.3860   11.7400   20.9410 H   0  0  0  0  0  0  0  0  0  0  0  0
   -0.5100   14.0130   21.1070 C   0  0  0  0  0  0  0  0  0  0  0  0
    0.2510   13.6360   21.8000 H   0  0  0  0  0  0  0  0  0  0  0  0
   -1.2100   14.5970   21.7150 H   0  0  0  0  0  0  0  0  0  0  0  0
    0.1470   14.9000   20.0500 C   0  0  0  0  0  0  0  0  0  0  0  0
   -0.4180   14.7580   19.1200 H   0  0  0  0  0  0  0  0  0  0  0  0
    0.0340   15.9560   20.3250 H   0  0  0  0  0  0  0  0  0  0  0  0
    1.6300   14.6160   19.7970 C   0  0  2  0  0  0  0  0  0  0  0  0
    2.1460   15.2040   18.4910 C   0  0  0  0  0  0  0  0  0  0  0  0
    3.2360   14.2300   18.1190 C   0  0  0  0  0  0  0  0  0  0  0  0
    2.6290   12.9170   18.5530 C   0  0  0  0  0  0  0  0  0  0  0  0
    1.8830   13.1930   19.7540 O   0  0  0  0  0  0  0  0  0  0  0  0
    2.2270   15.0080   20.6300 H   0  0  0  0  0  0  0  0  0  0  0  0
    2.5020   16.2330   18.6010 H   0  0  0  0  0  0  0  0  0  0  0  0
    1.3690   15.1970   17.7170 H   0  0  0  0  0  0  0  0  0  0  0  0
    4.1380   14.4390   18.7060 H   0  0  0  0  0  0  0  0  0  0  0  0
    3.4990   14.2520   17.0590 H   0  0  0  0  0  0  0  0  0  0  0  0
    3.3790   12.1460   18.7540 H   0  0  0  0  0  0  0  0  0  0  0  0
    1.9230   12.5380   17.8040 H   0  0  0  0  0  0  0  0  0  0  0  0
    2.5850    8.7150   18.1310 C   0  0  0  0  0  0  0  0  0  0  0  0
    2.6510    9.2890   17.2000 H   0  0  0  0  0  0  0  0  0  0  0  0
    3.2890    9.1560   18.8470 H   0  0  0  0  0  0  0  0  0  0  0  0
    2.9440    7.2670   17.9270 C   0  0  0  0  0  0  0  0  0  0  0  0
    2.0340    6.2520   18.2700 C   0  0  0  0  0  0  0  0  0  0  0  0
    2.3610    4.9110   18.0610 C   0  0  0  0  0  0  0  0  0  0  0  0
    3.5910    4.5810   17.5050 C   0  0  0  0  0  0  0  0  0  0  0  0
    3.8990    3.2950   17.3010 F   0  0  0  0  0  0  0  0  0  0  0  0
    4.5070    5.5680   17.1640 C   0  0  0  0  0  0  0  0  0  0  0  0
    4.1870    6.9110   17.3760 C   0  0  0  0  0  0  0  0  0  0  0  0
    1.0690    6.4850   18.7160 H   0  0  0  0  0  0  0  0  0  0  0  0
    1.6680    4.1150   18.3270 H   0  0  0  0  0  0  0  0  0  0  0  0
    5.4650    5.2820   16.7380 H   0  0  0  0  0  0  0  0  0  0  0  0
    4.9250    7.6670   17.1130 H   0  0  0  0  0  0  0  0  0  0  0  0
  1 19  1  0  0  0  0
  1  7  1  0  0  0  0
  1  2  1  0  0  0  0
  2  8  1  0  0  0  0
  3 11  1  0  0  0  0
  3 10  1  0  0  0  0
  3  2  1  0  0  0  0
  4  3  1  0  0  0  0
  5 14  1  0  0  0  0
  5  6  1  0  0  0  0
  5  4  1  0  0  0  0
  6  1  1  0  0  0  0
  9  2  1  0  0  0  0
 12  4  1  0  0  0  0
 13  5  1  0  0  0  0
 15  6  1  0  0  0  0
 16  6  1  0  0  0  0
 17 18  2  0  0  0  0
 18 21  1  0  0  0  0
 19 18  1  0  0  0  0
 19 20  1  0  0  0  0
 21 23  1  0  0  0  0
 21 22  1  0  0  0  0
 24 26  1  0  0  0  0
 24 21  1  0  0  0  0
 25 24  1  0  0  0  0
 27 24  1  0  0  0  0
 27 32  1  1  0  0  0
 28 33  1  0  0  0  0
 28 27  1  0  0  0  0
 29 28  1  0  0  0  0
 29 30  1  0  0  0  0
 29 35  1  0  0  0  0
 30 37  1  0  0  0  0
 30 31  1  0  0  0  0
 31 27  1  0  0  0  0
 34 28  1  0  0  0  0
 36 29  1  0  0  0  0
 38 30  1  0  0  0  0
 39  4  1  0  0  0  0
 39 41  1  0  0  0  0
 40 39  1  0  0  0  0
 42 39  1  0  0  0  0
 42 43  1  0  0  0  0
 43 49  1  0  0  0  0
 44 43  2  0  0  0  0
 44 50  1  0  0  0  0
 45 44  1  0  0  0  0
 46 45  1  0  0  0  0
 47 48  1  0  0  0  0
 47 45  2  0  0  0  0
 48 42  2  0  0  0  0
 51 47  1  0  0  0  0
 52 48  1  0  0  0  0
M  END
>  <MODEL>
30

>  <REMARK>
 VINA RESULT:    -5.242      6.164      7.667
 INTER + INTRA:          -8.300
 INTER:                  -7.327
 INTRA:                  -0.973
 UNBOUND:                -1.219
  Name = 
  6 active torsions:
  status: ('A' for Active; 'I' for Inactive)
    1  A    between atoms: C_2  and  C_3
    2  A    between atoms: C_3  and  C_4
    3  A    between atoms: C_4  and  C_5
    4  A    between atoms: N_10  and  C_11
    5  A    between atoms: N_14  and  C_15
    6  A    between atoms: C_15  and  C_16
                            x       y       z     vdW  Elec       q    Type
                         _______ _______ _______ _____ _____    ______ ____

>  <TORSDO>
F 6

$$$$
=
 OpenBabel07192307433D

 52 54  0  0  1  0  0  0  0  0999 V2000
    0.1530    9.6730   19.8750 C   0  0  0  0  0  0  0  0  0  0  0  0
   -1.0090   10.3080   19.1060 C   0  0  0  0  0  0  0  0  0  0  0  0
   -0.6260   11.6590   18.5160 C   0  0  0  0  0  0  0  0  0  0  0  0
   -0.1290   12.5850   19.5980 N   0  0  0  0  0  4  0  0  0  0  0  0
    1.0340   11.9890   20.3660 C   0  0  0  0  0  0  0  0  0  0  0  0
    0.6160   10.6550   20.9580 C   0  0  0  0  0  0  0  0  0  0  0  0
   -0.1940    8.7510   20.3570 H   0  0  0  0  0  0  0  0  0  0  0  0
   -1.3420    9.6440   18.3000 H   0  0  0  0  0  0  0  0  0  0  0  0
   -1.8630   10.4380   19.7820 H   0  0  0  0  0  0  0  0  0  0  0  0
   -1.5010   12.1320   18.0590 H   0  0  0  0  0  0  0  0  0  0  0  0
    0.1670   11.5690   17.7640 H   0  0  0  0  0  0  0  0  0  0  0  0
   -0.8920   12.7300   20.2700 H   0  0  0  0  0  0  0  0  0  0  0  0
    1.2940   12.6830   21.1690 H   0  0  0  0  0  0  0  0  0  0  0  0
    1.8800   11.8950   19.6760 H   0  0  0  0  0  0  0  0  0  0  0  0
    1.4380   10.2530   21.5540 H   0  0  0  0  0  0  0  0  0  0  0  0
   -0.2100   10.8190   21.6630 H   0  0  0  0  0  0  0  0  0  0  0  0
    1.9680    7.4850   20.1650 O   0  0  0  0  0  0  0  0  0  0  0  0
    1.9590    8.1310   19.1270 C   0  0  0  0  0  0  0  0  0  0  0  0
    1.2040    9.2760   18.9400 N   0  0  0  0  0  0  0  0  0  0  0  0
    1.0150    9.4380   17.9440 H   0  0  0  0  0  0  0  0  0  0  0  0
    2.7870    7.7480   17.9190 C   0  0  0  0  0  0  0  0  0  0  0  0
    3.3140    8.6440   17.5700 H   0  0  0  0  0  0  0  0  0  0  0  0
    2.1170    7.4550   17.1030 H   0  0  0  0  0  0  0  0  0  0  0  0
    3.7940    6.6360   18.2090 C   0  0  0  0  0  0  0  0  0  0  0  0
    4.7780    7.0120   17.9000 H   0  0  0  0  0  0  0  0  0  0  0  0
    3.8550    6.4580   19.2900 H   0  0  0  0  0  0  0  0  0  0  0  0
    3.5100    5.3050   17.5070 C   0  0  2  0  0  0  0  0  0  0  0  0
    2.1430    4.7240   17.8410 C   0  0  0  0  0  0  0  0  0  0  0  0
    2.3960    3.2420   17.7170 C   0  0  0  0  0  0  0  0  0  0  0  0
    3.7920    3.1250   18.2820 C   0  0  0  0  0  0  0  0  0  0  0  0
    4.4960    4.3110   17.8680 O   0  0  0  0  0  0  0  0  0  0  0  0
    3.5910    5.4370   16.4210 H   0  0  0  0  0  0  0  0  0  0  0  0
    1.3540    5.0870   17.1750 H   0  0  0  0  0  0  0  0  0  0  0  0
    1.8500    4.9610   18.8710 H   0  0  0  0  0  0  0  0  0  0  0  0
    2.3920    2.9510   16.6600 H   0  0  0  0  0  0  0  0  0  0  0  0
    1.6650    2.6280   18.2490 H   0  0  0  0  0  0  0  0  0  0  0  0
    4.3230    2.2380   17.9250 H   0  0  0  0  0  0  0  0  0  0  0  0
    3.7780    3.1140   19.3790 H   0  0  0  0  0  0  0  0  0  0  0  0
    0.1970   13.9540   19.0330 C   0  0  0  0  0  0  0  0  0  0  0  0
   -0.1850   13.9850   18.0070 H   0  0  0  0  0  0  0  0  0  0  0  0
   -0.3620   14.6920   19.6210 H   0  0  0  0  0  0  0  0  0  0  0  0
    1.6630   14.2890   19.0990 C   0  0  0  0  0  0  0  0  0  0  0  0
    2.1870   14.9750   20.2090 C   0  0  0  0  0  0  0  0  0  0  0  0
    3.5510   15.2670   20.2770 C   0  0  0  0  0  0  0  0  0  0  0  0
    4.3920   14.8720   19.2450 C   0  0  0  0  0  0  0  0  0  0  0  0
    5.6990   15.1480   19.3160 F   0  0  0  0  0  0  0  0  0  0  0  0
    3.8940   14.1990   18.1370 C   0  0  0  0  0  0  0  0  0  0  0  0
    2.5300   13.9090   18.0600 C   0  0  0  0  0  0  0  0  0  0  0  0
    1.5470   15.3040   21.0250 H   0  0  0  0  0  0  0  0  0  0  0  0
    3.9690   15.8020   21.1280 H   0  0  0  0  0  0  0  0  0  0  0  0
    4.5720   13.9080   17.3390 H   0  0  0  0  0  0  0  0  0  0  0  0
    2.1590   13.3910   17.1770 H   0  0  0  0  0  0  0  0  0  0  0  0
  1  7  1  0  0  0  0
  1  6  1  0  0  0  0
  2  9  1  0  0  0  0
  2  1  1  0  0  0  0
  3  2  1  0  0  0  0
  3  4  1  0  0  0  0
  4 12  1  0  0  0  0
  4  5  1  0  0  0  0
  5  6  1  0  0  0  0
  5 13  1  0  0  0  0
  6 15  1  0  0  0  0
  6 16  1  0  0  0  0
  8  2  1  0  0  0  0
 10  3  1  0  0  0  0
 11  3  1  0  0  0  0
 14  5  1  0  0  0  0
 18 17  2  0  0  0  0
 19 18  1  0  0  0  0
 19  1  1  0  0  0  0
 20 19  1  0  0  0  0
 21 24  1  0  0  0  0
 21 18  1  0  0  0  0
 22 21  1  0  0  0  0
 23 21  1  0  0  0  0
 24 26  1  0  0  0  0
 25 24  1  0  0  0  0
 27 32  1  6  0  0  0
 27 28  1  0  0  0  0
 27 31  1  0  0  0  0
 27 24  1  0  0  0  0
 28 34  1  0  0  0  0
 29 28  1  0  0  0  0
 29 36  1  0  0  0  0
 29 30  1  0  0  0  0
 30 38  1  0  0  0  0
 31 30  1  0  0  0  0
 33 28  1  0  0  0  0
 35 29  1  0  0  0  0
 37 30  1  0  0  0  0
 39 42  1  0  0  0  0
 39  4  1  0  0  0  0
 39 41  1  0  0  0  0
 40 39  1  0  0  0  0
 42 43  1  0  0  0  0
 43 44  2  0  0  0  0
 43 49  1  0  0  0  0
 44 50  1  0  0  0  0
 45 46  1  0  0  0  0
 45 44  1  0  0  0  0
 47 45  2  0  0  0  0
 48 47  1  0  0  0  0
 48 42  2  0  0  0  0
 51 47  1  0  0  0  0
 52 48  1  0  0  0  0
M  END
>  <MODEL>
31

>  <REMARK>
 VINA RESULT:    -5.223      6.122      9.768
 INTER + INTRA:          -8.273
 INTER:                  -7.884
 INTRA:                  -0.389
 UNBOUND:                -1.219
  Name = 
  6 active torsions:
  status: ('A' for Active; 'I' for Inactive)
    1  A    between atoms: C_2  and  C_3
    2  A    between atoms: C_3  and  C_4
    3  A    between atoms: C_4  and  C_5
    4  A    between atoms: N_10  and  C_11
    5  A    between atoms: N_14  and  C_15
    6  A    between atoms: C_15  and  C_16
                            x       y       z     vdW  Elec       q    Type
                         _______ _______ _______ _____ _____    ______ ____

>  <TORSDO>
F 6

$$$$
=
 OpenBabel07192307433D

 52 54  0  0  1  0  0  0  0  0999 V2000
    1.0140    8.0680   21.6220 C   0  0  0  0  0  0  0  0  0  0  0  0
   -0.4420    8.1920   21.1610 C   0  0  0  0  0  0  0  0  0  0  0  0
   -0.6580    9.4290   20.2980 C   0  0  0  0  0  0  0  0  0  0  0  0
   -0.2200   10.6700   21.0350 N   0  0  0  0  0  4  0  0  0  0  0  0
    1.2230   10.5820   21.4880 C   0  0  0  0  0  0  0  0  0  0  0  0
    1.4020    9.3540   22.3620 C   0  0  0  0  0  0  0  0  0  0  0  0
    1.1020    7.2210   22.3120 H   0  0  0  0  0  0  0  0  0  0  0  0
   -0.7410    7.3020   20.5980 H   0  0  0  0  0  0  0  0  0  0  0  0
   -1.0970    8.2470   22.0400 H   0  0  0  0  0  0  0  0  0  0  0  0
   -1.7220    9.5440   20.0660 H   0  0  0  0  0  0  0  0  0  0  0  0
   -0.0910    9.3790   19.3610 H   0  0  0  0  0  0  0  0  0  0  0  0
   -0.7980   10.7600   21.8800 H   0  0  0  0  0  0  0  0  0  0  0  0
    1.4460   11.4810   22.0680 H   0  0  0  0  0  0  0  0  0  0  0  0
    1.8560   10.5570   20.5940 H   0  0  0  0  0  0  0  0  0  0  0  0
    2.4300    9.3220   22.7300 H   0  0  0  0  0  0  0  0  0  0  0  0
    0.7700    9.4520   23.2540 H   0  0  0  0  0  0  0  0  0  0  0  0
    1.9100    5.4790   20.8090 O   0  0  0  0  0  0  0  0  0  0  0  0
    2.1540    6.4530   20.1090 C   0  0  0  0  0  0  0  0  0  0  0  0
    1.8670    7.7560   20.4770 N   0  0  0  0  0  0  0  0  0  0  0  0
    1.7680    8.3600   19.6540 H   0  0  0  0  0  0  0  0  0  0  0  0
    2.8100    6.3380   18.7510 C   0  0  0  0  0  0  0  0  0  0  0  0
    3.8840    6.1760   18.9040 H   0  0  0  0  0  0  0  0  0  0  0  0
    2.7200    7.2960   18.2270 H   0  0  0  0  0  0  0  0  0  0  0  0
    2.2340    5.2080   17.8980 C   0  0  0  0  0  0  0  0  0  0  0  0
    1.2810    4.9170   18.3590 H   0  0  0  0  0  0  0  0  0  0  0  0
    1.9930    5.5810   16.8950 H   0  0  0  0  0  0  0  0  0  0  0  0
    3.1330    3.9770   17.7600 C   0  0  2  0  0  0  0  0  0  0  0  0
    2.3770    2.6590   17.8590 C   0  0  0  0  0  0  0  0  0  0  0  0
    3.4230    1.7420   18.4440 C   0  0  0  0  0  0  0  0  0  0  0  0
    4.1250    2.6660   19.4120 C   0  0  0  0  0  0  0  0  0  0  0  0
    4.1510    3.9630   18.7870 O   0  0  0  0  0  0  0  0  0  0  0  0
    3.6660    4.0160   16.8020 H   0  0  0  0  0  0  0  0  0  0  0  0
    1.9940    2.3170   16.8920 H   0  0  0  0  0  0  0  0  0  0  0  0
    1.5300    2.7370   18.5500 H   0  0  0  0  0  0  0  0  0  0  0  0
    4.1180    1.4210   17.6600 H   0  0  0  0  0  0  0  0  0  0  0  0
    3.0050    0.8540   18.9240 H   0  0  0  0  0  0  0  0  0  0  0  0
    5.1470    2.3470   19.6400 H   0  0  0  0  0  0  0  0  0  0  0  0
    3.5650    2.7600   20.3500 H   0  0  0  0  0  0  0  0  0  0  0  0
   -0.4880   11.9130   20.2100 C   0  0  0  0  0  0  0  0  0  0  0  0
   -1.1820   11.6330   19.4090 H   0  0  0  0  0  0  0  0  0  0  0  0
   -1.0010   12.6330   20.8600 H   0  0  0  0  0  0  0  0  0  0  0  0
    0.7650   12.5500   19.6720 C   0  0  0  0  0  0  0  0  0  0  0  0
    1.4500   11.9730   18.5890 C   0  0  0  0  0  0  0  0  0  0  0  0
    2.6010   12.5780   18.0800 C   0  0  0  0  0  0  0  0  0  0  0  0
    3.0660   13.7580   18.6450 C   0  0  0  0  0  0  0  0  0  0  0  0
    4.1660   14.3380   18.1500 F   0  0  0  0  0  0  0  0  0  0  0  0
    2.4080   14.3420   19.7200 C   0  0  0  0  0  0  0  0  0  0  0  0
    1.2600   13.7390   20.2370 C   0  0  0  0  0  0  0  0  0  0  0  0
    1.1110   11.0440   18.1360 H   0  0  0  0  0  0  0  0  0  0  0  0
    3.1440   12.1390   17.2450 H   0  0  0  0  0  0  0  0  0  0  0  0
    2.7980   15.2610   20.1480 H   0  0  0  0  0  0  0  0  0  0  0  0
    0.7670   14.2080   21.0870 H   0  0  0  0  0  0  0  0  0  0  0  0
  1  7  1  0  0  0  0
  1  6  1  0  0  0  0
  2  1  1  0  0  0  0
  2  9  1  0  0  0  0
  3  4  1  0  0  0  0
  3  2  1  0  0  0  0
  4  5  1  0  0  0  0
  4 12  1  0  0  0  0
  5 13  1  0  0  0  0
  5  6  1  0  0  0  0
  6 15  1  0  0  0  0
  6 16  1  0  0  0  0
  8  2  1  0  0  0  0
 10  3  1  0  0  0  0
 11  3  1  0  0  0  0
 14  5  1  0  0  0  0
 18 19  1  0  0  0  0
 18 17  2  0  0  0  0
 19  1  1  0  0  0  0
 20 19  1  0  0  0  0
 21 22  1  0  0  0  0
 21 18  1  0  0  0  0
 23 21  1  0  0  0  0
 24 25  1  0  0  0  0
 24 21  1  0  0  0  0
 26 24  1  0  0  0  0
 27 32  1  6  0  0  0
 27 28  1  0  0  0  0
 27 24  1  0  0  0  0
 27 31  1  0  0  0  0
 28 29  1  0  0  0  0
 28 34  1  0  0  0  0
 29 36  1  0  0  0  0
 29 30  1  0  0  0  0
 30 37  1  0  0  0  0
 30 38  1  0  0  0  0
 31 30  1  0  0  0  0
 33 28  1  0  0  0  0
 35 29  1  0  0  0  0
 39 41  1  0  0  0  0
 39  4  1  0  0  0  0
 40 39  1  0  0  0  0
 42 39  1  0  0  0  0
 42 48  1  0  0  0  0
 43 42  2  0  0  0  0
 44 43  1  0  0  0  0
 44 45  2  0  0  0  0
 45 47  1  0  0  0  0
 46 45  1  0  0  0  0
 47 51  1  0  0  0  0
 47 48  2  0  0  0  0
 48 52  1  0  0  0  0
 49 43  1  0  0  0  0
 50 44  1  0  0  0  0
M  END
>  <MODEL>
32

>  <REMARK>
 VINA RESULT:    -5.222      5.809      9.420
 INTER + INTRA:          -8.273
 INTER:                  -7.734
 INTRA:                  -0.539
 UNBOUND:                -1.219
  Name = 
  6 active torsions:
  status: ('A' for Active; 'I' for Inactive)
    1  A    between atoms: C_2  and  C_3
    2  A    between atoms: C_3  and  C_4
    3  A    between atoms: C_4  and  C_5
    4  A    between atoms: N_10  and  C_11
    5  A    between atoms: N_14  and  C_15
    6  A    between atoms: C_15  and  C_16
                            x       y       z     vdW  Elec       q    Type
                         _______ _______ _______ _____ _____    ______ ____

>  <TORSDO>
F 6

$$$$
=
 OpenBabel07192307433D

 52 54  0  0  1  0  0  0  0  0999 V2000
   -0.2200    9.7090   23.0010 C   0  0  0  0  0  0  0  0  0  0  0  0
    1.2140    9.2770   23.3250 C   0  0  0  0  0  0  0  0  0  0  0  0
    2.0130    8.9800   22.0640 C   0  0  0  0  0  0  0  0  0  0  0  0
    1.3140    7.9350   21.2300 N   0  0  0  0  0  4  0  0  0  0  0  0
   -0.1020    8.3440   20.8790 C   0  0  0  0  0  0  0  0  0  0  0  0
   -0.8790    8.6130   22.1550 C   0  0  0  0  0  0  0  0  0  0  0  0
   -0.7820    9.8220   23.9350 H   0  0  0  0  0  0  0  0  0  0  0  0
    1.7250   10.0560   23.9020 H   0  0  0  0  0  0  0  0  0  0  0  0
    1.1880    8.3800   23.9560 H   0  0  0  0  0  0  0  0  0  0  0  0
    2.9980    8.5810   22.3280 H   0  0  0  0  0  0  0  0  0  0  0  0
    2.1440    9.8720   21.4400 H   0  0  0  0  0  0  0  0  0  0  0  0
    1.2520    7.0730   21.7840 H   0  0  0  0  0  0  0  0  0  0  0  0
   -0.5630    7.5150   20.3350 H   0  0  0  0  0  0  0  0  0  0  0  0
   -0.0480    9.2230   20.2280 H   0  0  0  0  0  0  0  0  0  0  0  0
   -1.9130    8.8560   21.9010 H   0  0  0  0  0  0  0  0  0  0  0  0
   -0.9270    7.6900   22.7470 H   0  0  0  0  0  0  0  0  0  0  0  0
   -2.1800   11.7680   23.2880 O   0  0  0  0  0  0  0  0  0  0  0  0
   -1.1540   11.9910   22.6610 C   0  0  0  0  0  0  0  0  0  0  0  0
   -0.2060   11.0260   22.3680 N   0  0  0  0  0  0  0  0  0  0  0  0
    0.7160   11.4470   22.2080 H   0  0  0  0  0  0  0  0  0  0  0  0
   -0.8060   13.3630   22.1260 C   0  0  0  0  0  0  0  0  0  0  0  0
   -0.8260   14.0710   22.9640 H   0  0  0  0  0  0  0  0  0  0  0  0
   -1.5940   13.6890   21.4360 H   0  0  0  0  0  0  0  0  0  0  0  0
    0.5580   13.4140   21.4390 C   0  0  0  0  0  0  0  0  0  0  0  0
    0.9880   14.4000   21.6610 H   0  0  0  0  0  0  0  0  0  0  0  0
    1.2310   12.6730   21.8880 H   0  0  0  0  0  0  0  0  0  0  0  0
    0.5300   13.1970   19.9240 C   0  0  2  0  0  0  0  0  0  0  0  0
   -0.7810   13.6190   19.2750 C   0  0  0  0  0  0  0  0  0  0  0  0
   -0.8660   12.6770   18.1000 C   0  0  0  0  0  0  0  0  0  0  0  0
   -0.3100   11.4040   18.6940 C   0  0  0  0  0  0  0  0  0  0  0  0
    0.7360   11.8030   19.5990 O   0  0  0  0  0  0  0  0  0  0  0  0
    1.3570   13.7450   19.4580 H   0  0  0  0  0  0  0  0  0  0  0  0
   -0.7890   14.6750   18.9850 H   0  0  0  0  0  0  0  0  0  0  0  0
   -1.6310   13.4470   19.9450 H   0  0  0  0  0  0  0  0  0  0  0  0
   -0.2150   13.0300   17.2910 H   0  0  0  0  0  0  0  0  0  0  0  0
   -1.8780   12.5600   17.7060 H   0  0  0  0  0  0  0  0  0  0  0  0
    0.0950   10.7230   17.9390 H   0  0  0  0  0  0  0  0  0  0  0  0
   -1.0710   10.8720   19.2790 H   0  0  0  0  0  0  0  0  0  0  0  0
    2.1320    7.5860   20.0020 C   0  0  0  0  0  0  0  0  0  0  0  0
    1.8380    8.2760   19.2030 H   0  0  0  0  0  0  0  0  0  0  0  0
    3.1840    7.7820   20.2430 H   0  0  0  0  0  0  0  0  0  0  0  0
    1.9900    6.1470   19.5830 C   0  0  0  0  0  0  0  0  0  0  0  0
    2.2640    5.7590   18.2610 C   0  0  0  0  0  0  0  0  0  0  0  0
    2.1510    4.4200   17.8810 C   0  0  0  0  0  0  0  0  0  0  0  0
    1.7710    3.4680   18.8180 C   0  0  0  0  0  0  0  0  0  0  0  0
    1.6690    2.1850   18.4520 F   0  0  0  0  0  0  0  0  0  0  0  0
    1.4890    3.8310   20.1290 C   0  0  0  0  0  0  0  0  0  0  0  0
    1.5950    5.1690   20.5130 C   0  0  0  0  0  0  0  0  0  0  0  0
    2.5540    6.4870   17.5060 H   0  0  0  0  0  0  0  0  0  0  0  0
    2.3560    4.1060   16.8590 H   0  0  0  0  0  0  0  0  0  0  0  0
    1.1860    3.0680   20.8400 H   0  0  0  0  0  0  0  0  0  0  0  0
    1.3580    5.4330   21.5430 H   0  0  0  0  0  0  0  0  0  0  0  0
  1  2  1  0  0  0  0
  1  7  1  0  0  0  0
  2  8  1  0  0  0  0
  2  9  1  0  0  0  0
  3 10  1  0  0  0  0
  3  2  1  0  0  0  0
  4 12  1  0  0  0  0
  4  3  1  0  0  0  0
  5  4  1  0  0  0  0
  5  6  1  0  0  0  0
  6 16  1  0  0  0  0
  6  1  1  0  0  0  0
 11  3  1  0  0  0  0
 13  5  1  0  0  0  0
 14  5  1  0  0  0  0
 15  6  1  0  0  0  0
 18 17  2  0  0  0  0
 19 18  1  0  0  0  0
 19  1  1  0  0  0  0
 20 19  1  0  0  0  0
 21 18  1  0  0  0  0
 21 22  1  0  0  0  0
 23 21  1  0  0  0  0
 24 25  1  0  0  0  0
 24 26  1  0  0  0  0
 24 21  1  0  0  0  0
 27 32  1  6  0  0  0
 27 24  1  0  0  0  0
 28 27  1  0  0  0  0
 28 34  1  0  0  0  0
 29 30  1  0  0  0  0
 29 28  1  0  0  0  0
 30 38  1  0  0  0  0
 30 31  1  0  0  0  0
 31 27  1  0  0  0  0
 33 28  1  0  0  0  0
 35 29  1  0  0  0  0
 36 29  1  0  0  0  0
 37 30  1  0  0  0  0
 39 41  1  0  0  0  0
 39  4  1  0  0  0  0
 40 39  1  0  0  0  0
 42 39  1  0  0  0  0
 42 48  1  0  0  0  0
 43 42  2  0  0  0  0
 44 43  1  0  0  0  0
 44 45  2  0  0  0  0
 45 47  1  0  0  0  0
 46 45  1  0  0  0  0
 47 48  2  0  0  0  0
 47 51  1  0  0  0  0
 48 52  1  0  0  0  0
 49 43  1  0  0  0  0
 50 44  1  0  0  0  0
M  END
>  <MODEL>
33

>  <REMARK>
 VINA RESULT:    -5.199      6.456      8.077
 INTER + INTRA:          -8.241
 INTER:                  -7.022
 INTRA:                  -1.219
 UNBOUND:                -1.219
  Name = 
  6 active torsions:
  status: ('A' for Active; 'I' for Inactive)
    1  A    between atoms: C_2  and  C_3
    2  A    between atoms: C_3  and  C_4
    3  A    between atoms: C_4  and  C_5
    4  A    between atoms: N_10  and  C_11
    5  A    between atoms: N_14  and  C_15
    6  A    between atoms: C_15  and  C_16
                            x       y       z     vdW  Elec       q    Type
                         _______ _______ _______ _____ _____    ______ ____

>  <TORSDO>
F 6

$$$$
