=
 OpenBabel07192307433D

 56 59  0  0  1  0  0  0  0  0999 V2000
    0.7340   10.2710   18.9510 C   0  0  2  0  0  0  0  0  0  0  0  0
   -0.7340   10.2690   18.4810 C   0  0  0  0  0  0  0  0  0  0  0  0
   -1.2910   11.6710   18.7960 C   0  0  2  0  0  0  0  0  0  0  0  0
   -0.0480   12.5080   18.6610 C   0  0  0  0  0  0  0  0  0  0  0  0
    0.0390   13.8840   18.5150 C   0  0  0  0  0  0  0  0  0  0  0  0
    1.3080   14.4650   18.4460 C   0  0  0  0  0  0  0  0  0  0  0  0
    2.4640   13.6710   18.5340 C   0  0  0  0  0  0  0  0  0  0  0  0
    2.3680   12.2870   18.6910 C   0  0  0  0  0  0  0  0  0  0  0  0
    1.1040   11.7140   18.7440 C   0  0  0  0  0  0  0  0  0  0  0  0
    0.7940   10.0280   20.0190 H   0  0  0  0  0  0  0  0  0  0  0  0
   -1.3080    9.4560   18.9370 H   0  0  0  0  0  0  0  0  0  0  0  0
   -0.7690   10.1120   17.3930 H   0  0  0  0  0  0  0  0  0  0  0  0
   -2.0570   11.9590   18.0660 H   0  0  0  0  0  0  0  0  0  0  0  0
   -0.8550   14.4990   18.4570 H   0  0  0  0  0  0  0  0  0  0  0  0
    1.4040   15.5420   18.3270 H   0  0  0  0  0  0  0  0  0  0  0  0
    3.4450   14.1420   18.4850 H   0  0  0  0  0  0  0  0  0  0  0  0
    3.2620   11.6750   18.7760 H   0  0  0  0  0  0  0  0  0  0  0  0
    2.7110    7.4450   17.8760 N   0  0  0  0  0  0  0  0  0  0  0  0
    2.0700    8.2390   18.7900 C   0  0  0  0  0  0  0  0  0  0  0  0
    1.9610    7.9790   19.9780 O   0  0  0  0  0  0  0  0  0  0  0  0
    1.5640    9.3620   18.1970 N   0  0  0  0  0  0  0  0  0  0  0  0
    3.2440    7.9880   17.2000 H   0  0  0  0  0  0  0  0  0  0  0  0
    1.3880    9.2840   17.2050 H   0  0  0  0  0  0  0  0  0  0  0  0
    3.4230    6.2830   18.3450 C   0  0  0  0  0  0  0  0  0  0  0  0
    4.0300    6.5670   19.2130 H   0  0  0  0  0  0  0  0  0  0  0  0
    2.7010    5.5430   18.7070 H   0  0  0  0  0  0  0  0  0  0  0  0
    4.6000    4.3050   17.2030 C   0  0  0  0  0  0  0  0  0  0  0  0
    5.3870    3.8060   16.1550 C   0  0  0  0  0  0  0  0  0  0  0  0
    5.8580    4.6690   15.1740 C   0  0  0  0  0  0  0  0  0  0  0  0
    6.6050    4.1850   14.1730 F   0  0  0  0  0  0  0  0  0  0  0  0
    5.5780    6.0240   15.2220 C   0  0  0  0  0  0  0  0  0  0  0  0
    4.8030    6.5320   16.2650 C   0  0  0  0  0  0  0  0  0  0  0  0
    4.2910    5.6830   17.2640 C   0  0  0  0  0  0  0  0  0  0  0  0
    5.6640    2.7630   16.1020 H   0  0  0  0  0  0  0  0  0  0  0  0
    5.9680    6.6810   14.4550 H   0  0  0  0  0  0  0  0  0  0  0  0
    4.6000    7.6010   16.3010 H   0  0  0  0  0  0  0  0  0  0  0  0
    5.0350    3.0930   19.2650 N   0  0  0  0  0  0  0  0  0  0  0  0
    4.1470    3.3620   18.2610 C   0  0  0  0  0  0  0  0  0  0  0  0
    3.0380    2.8410   18.2380 O   0  0  0  0  0  0  0  0  0  0  0  0
    4.7750    2.3570   19.9170 H   0  0  0  0  0  0  0  0  0  0  0  0
    6.0160    3.3300   19.2020 H   0  0  0  0  0  0  0  0  0  0  0  0
   -1.8310   11.7750   20.1370 N   0  0  0  0  0  0  0  0  0  0  0  0
   -3.0240   12.4230   20.3690 C   0  0  0  0  0  0  0  0  0  0  0  0
   -3.6850   12.9380   19.4730 O   0  0  0  0  0  0  0  0  0  0  0  0
   -1.2260   11.5230   20.9050 H   0  0  0  0  0  0  0  0  0  0  0  0
   -3.4840   12.5140   21.7850 C   0  0  0  0  0  0  0  0  0  0  0  0
   -4.7760   12.9320   22.1420 C   0  0  0  0  0  0  0  0  0  0  0  0
   -5.1460   12.9900   23.4900 C   0  0  0  0  0  0  0  0  0  0  0  0
   -4.2270   12.6440   24.4750 C   0  0  0  0  0  0  0  0  0  0  0  0
   -4.5880   12.7000   25.7640 F   0  0  0  0  0  0  0  0  0  0  0  0
   -2.9390   12.2460   24.1420 C   0  0  0  0  0  0  0  0  0  0  0  0
   -2.5660   12.1830   22.7960 C   0  0  0  0  0  0  0  0  0  0  0  0
   -5.5020   13.2410   21.3960 H   0  0  0  0  0  0  0  0  0  0  0  0
   -6.1400   13.3120   23.7790 H   0  0  0  0  0  0  0  0  0  0  0  0
   -2.2330   11.9910   24.9270 H   0  0  0  0  0  0  0  0  0  0  0  0
   -1.5550   11.8750   22.5360 H   0  0  0  0  0  0  0  0  0  0  0  0
  1 10  1  1  0  0  0
  2  3  1  0  0  0  0
  2 11  1  0  0  0  0
  2  1  1  0  0  0  0
  3 13  1  6  0  0  0
  3 42  1  0  0  0  0
  4  9  1  0  0  0  0
  4  3  1  0  0  0  0
  5  4  2  0  0  0  0
  6  5  1  0  0  0  0
  6  7  2  0  0  0  0
  7  8  1  0  0  0  0
  8  9  2  0  0  0  0
  8 17  1  0  0  0  0
  9  1  1  0  0  0  0
 12  2  1  0  0  0  0
 14  5  1  0  0  0  0
 15  6  1  0  0  0  0
 16  7  1  0  0  0  0
 18 24  1  0  0  0  0
 18 19  1  0  0  0  0
 19 20  2  0  0  0  0
 21 19  1  0  0  0  0
 21  1  1  0  0  0  0
 22 18  1  0  0  0  0
 23 21  1  0  0  0  0
 24 26  1  0  0  0  0
 24 25  1  0  0  0  0
 27 33  1  0  0  0  0
 27 38  1  0  0  0  0
 28 27  2  0  0  0  0
 29 31  2  0  0  0  0
 29 28  1  0  0  0  0
 30 29  1  0  0  0  0
 31 32  1  0  0  0  0
 32 36  1  0  0  0  0
 32 33  2  0  0  0  0
 33 24  1  0  0  0  0
 34 28  1  0  0  0  0
 35 31  1  0  0  0  0
 37 40  1  0  0  0  0
 38 37  1  0  0  0  0
 39 38  2  0  0  0  0
 41 37  1  0  0  0  0
 42 43  1  0  0  0  0
 42 45  1  0  0  0  0
 43 46  1  0  0  0  0
 44 43  2  0  0  0  0
 46 47  2  0  0  0  0
 46 52  1  0  0  0  0
 47 48  1  0  0  0  0
 48 54  1  0  0  0  0
 48 49  2  0  0  0  0
 49 50  1  0  0  0  0
 51 49  1  0  0  0  0
 51 55  1  0  0  0  0
 52 51  2  0  0  0  0
 53 47  1  0  0  0  0
 56 52  1  0  0  0  0
M  END
>  <MODEL>
1

>  <REMARK>
 VINA RESULT:   -10.839      0.000      0.000
 INTER + INTRA:         -12.716
 INTER:                 -11.657
 INTRA:                  -1.059
 UNBOUND:                 1.925
  Name = 
  6 active torsions:
  status: ('A' for Active; 'I' for Inactive)
    1  A    between atoms: C_2  and  C_4
    2  A    between atoms: C_10  and  C_11
    3  A    between atoms: C_11  and  N_12
    4  A    between atoms: N_15  and  C_16
    5  A    between atoms: C_18  and  N_19
    6  A    between atoms: C_20  and  C_22
                            x       y       z     vdW  Elec       q    Type
                         _______ _______ _______ _____ _____    ______ ____

>  <TORSDO>
F 6

$$$$
=
 OpenBabel07192307433D

 56 59  0  0  1  0  0  0  0  0999 V2000
    0.5400   10.3300   18.6200 C   0  0  2  0  0  0  0  0  0  0  0  0
   -0.9300   10.4490   18.1700 C   0  0  0  0  0  0  0  0  0  0  0  0
   -1.4100   11.8410   18.6270 C   0  0  2  0  0  0  0  0  0  0  0  0
   -0.1260   12.6220   18.5590 C   0  0  0  0  0  0  0  0  0  0  0  0
    0.0320   14.0000   18.5460 C   0  0  0  0  0  0  0  0  0  0  0  0
    1.3300   14.5180   18.5190 C   0  0  0  0  0  0  0  0  0  0  0  0
    2.4430   13.6610   18.5150 C   0  0  0  0  0  0  0  0  0  0  0  0
    2.2750   12.2750   18.5390 C   0  0  0  0  0  0  0  0  0  0  0  0
    0.9830   11.7650   18.5500 C   0  0  0  0  0  0  0  0  0  0  0  0
    0.5940    9.9810   19.6590 H   0  0  0  0  0  0  0  0  0  0  0  0
   -1.5420    9.6270   18.5510 H   0  0  0  0  0  0  0  0  0  0  0  0
   -0.9810   10.4010   17.0730 H   0  0  0  0  0  0  0  0  0  0  0  0
   -2.1650   12.2380   17.9370 H   0  0  0  0  0  0  0  0  0  0  0  0
   -0.8290   14.6620   18.5580 H   0  0  0  0  0  0  0  0  0  0  0  0
    1.4810   15.5950   18.5040 H   0  0  0  0  0  0  0  0  0  0  0  0
    3.4470   14.0830   18.5000 H   0  0  0  0  0  0  0  0  0  0  0  0
    3.1370   11.6120   18.5530 H   0  0  0  0  0  0  0  0  0  0  0  0
    2.7040    7.7270   17.3610 N   0  0  0  0  0  0  0  0  0  0  0  0
    2.1710    8.5440   18.3220 C   0  0  0  0  0  0  0  0  0  0  0  0
    2.4220    8.4670   19.5150 O   0  0  0  0  0  0  0  0  0  0  0  0
    1.3150    9.4570   17.7720 N   0  0  0  0  0  0  0  0  0  0  0  0
    2.9270    8.2310   16.5060 H   0  0  0  0  0  0  0  0  0  0  0  0
    0.9120    9.1900   16.8850 H   0  0  0  0  0  0  0  0  0  0  0  0
    3.7310    6.7890   17.7400 C   0  0  0  0  0  0  0  0  0  0  0  0
    4.5540    6.8550   17.0190 H   0  0  0  0  0  0  0  0  0  0  0  0
    4.1490    7.0880   18.7080 H   0  0  0  0  0  0  0  0  0  0  0  0
    4.0020    4.2400   17.5590 C   0  0  0  0  0  0  0  0  0  0  0  0
    3.4540    2.9540   17.6740 C   0  0  0  0  0  0  0  0  0  0  0  0
    2.1240    2.7990   18.0400 C   0  0  0  0  0  0  0  0  0  0  0  0
    1.6090    1.5680   18.1520 F   0  0  0  0  0  0  0  0  0  0  0  0
    1.3180    3.9000   18.2800 C   0  0  0  0  0  0  0  0  0  0  0  0
    1.8500    5.1830   18.1610 C   0  0  0  0  0  0  0  0  0  0  0  0
    3.2000    5.3760   17.8130 C   0  0  0  0  0  0  0  0  0  0  0  0
    4.0370    2.0700   17.4550 H   0  0  0  0  0  0  0  0  0  0  0  0
    0.2800    3.7560   18.5500 H   0  0  0  0  0  0  0  0  0  0  0  0
    1.2040    6.0420   18.3380 H   0  0  0  0  0  0  0  0  0  0  0  0
    6.3760    4.1580   18.0760 N   0  0  0  0  0  0  0  0  0  0  0  0
    5.4180    4.3720   17.1240 C   0  0  0  0  0  0  0  0  0  0  0  0
    5.7210    4.6650   15.9740 O   0  0  0  0  0  0  0  0  0  0  0  0
    7.3340    4.3690   17.8120 H   0  0  0  0  0  0  0  0  0  0  0  0
    6.1640    4.1290   19.0640 H   0  0  0  0  0  0  0  0  0  0  0  0
   -1.9360   11.8410   19.9770 N   0  0  0  0  0  0  0  0  0  0  0  0
   -3.0420   12.5920   20.3040 C   0  0  0  0  0  0  0  0  0  0  0  0
   -3.6360   13.2890   19.4880 O   0  0  0  0  0  0  0  0  0  0  0  0
   -1.3650   11.4260   20.7000 H   0  0  0  0  0  0  0  0  0  0  0  0
   -3.4890   12.5610   21.7270 C   0  0  0  0  0  0  0  0  0  0  0  0
   -4.7890   12.9080   22.1260 C   0  0  0  0  0  0  0  0  0  0  0  0
   -5.1460   12.8530   23.4780 C   0  0  0  0  0  0  0  0  0  0  0  0
   -4.2070   12.4630   24.4260 C   0  0  0  0  0  0  0  0  0  0  0  0
   -4.5550   12.4100   25.7180 F   0  0  0  0  0  0  0  0  0  0  0  0
   -2.9100   12.1330   24.0520 C   0  0  0  0  0  0  0  0  0  0  0  0
   -2.5500   12.1850   22.7020 C   0  0  0  0  0  0  0  0  0  0  0  0
   -5.5340   13.2490   21.4120 H   0  0  0  0  0  0  0  0  0  0  0  0
   -6.1470   13.1190   23.7980 H   0  0  0  0  0  0  0  0  0  0  0  0
   -2.1870   11.8420   24.8090 H   0  0  0  0  0  0  0  0  0  0  0  0
   -1.5330   11.9300   22.4110 H   0  0  0  0  0  0  0  0  0  0  0  0
  1 10  1  1  0  0  0
  2 11  1  0  0  0  0
  2  1  1  0  0  0  0
  2  3  1  0  0  0  0
  3 13  1  6  0  0  0
  3 42  1  0  0  0  0
  4  3  1  0  0  0  0
  5 14  1  0  0  0  0
  5  4  2  0  0  0  0
  6  5  1  0  0  0  0
  7  6  2  0  0  0  0
  7  8  1  0  0  0  0
  8  9  2  0  0  0  0
  8 17  1  0  0  0  0
  9  4  1  0  0  0  0
  9  1  1  0  0  0  0
 12  2  1  0  0  0  0
 15  6  1  0  0  0  0
 16  7  1  0  0  0  0
 18 24  1  0  0  0  0
 18 19  1  0  0  0  0
 19 20  2  0  0  0  0
 21 19  1  0  0  0  0
 21  1  1  0  0  0  0
 22 18  1  0  0  0  0
 23 21  1  0  0  0  0
 24 33  1  0  0  0  0
 24 26  1  0  0  0  0
 25 24  1  0  0  0  0
 27 28  2  0  0  0  0
 27 33  1  0  0  0  0
 28 29  1  0  0  0  0
 29 30  1  0  0  0  0
 29 31  2  0  0  0  0
 31 35  1  0  0  0  0
 32 31  1  0  0  0  0
 32 36  1  0  0  0  0
 33 32  2  0  0  0  0
 34 28  1  0  0  0  0
 37 41  1  0  0  0  0
 38 27  1  0  0  0  0
 38 37  1  0  0  0  0
 39 38  2  0  0  0  0
 40 37  1  0  0  0  0
 42 43  1  0  0  0  0
 42 45  1  0  0  0  0
 43 46  1  0  0  0  0
 44 43  2  0  0  0  0
 46 47  2  0  0  0  0
 46 52  1  0  0  0  0
 47 48  1  0  0  0  0
 48 54  1  0  0  0  0
 48 49  2  0  0  0  0
 49 50  1  0  0  0  0
 51 49  1  0  0  0  0
 51 55  1  0  0  0  0
 52 51  2  0  0  0  0
 53 47  1  0  0  0  0
 56 52  1  0  0  0  0
M  END
>  <MODEL>
2

>  <REMARK>
 VINA RESULT:   -10.485      1.633      2.138
 INTER + INTRA:         -12.237
 INTER:                 -11.238
 INTRA:                  -0.999
 UNBOUND:                 1.925
  Name = 
  6 active torsions:
  status: ('A' for Active; 'I' for Inactive)
    1  A    between atoms: C_2  and  C_4
    2  A    between atoms: C_10  and  C_11
    3  A    between atoms: C_11  and  N_12
    4  A    between atoms: N_15  and  C_16
    5  A    between atoms: C_18  and  N_19
    6  A    between atoms: C_20  and  C_22
                            x       y       z     vdW  Elec       q    Type
                         _______ _______ _______ _____ _____    ______ ____

>  <TORSDO>
F 6

$$$$
=
 OpenBabel07192307433D

 56 59  0  0  1  0  0  0  0  0999 V2000
    0.9700   10.8440   19.0870 C   0  0  2  0  0  0  0  0  0  0  0  0
   -0.5390   10.9720   18.7920 C   0  0  0  0  0  0  0  0  0  0  0  0
   -0.9070   12.4450   19.0590 C   0  0  2  0  0  0  0  0  0  0  0  0
    0.3870   13.1290   18.7160 C   0  0  0  0  0  0  0  0  0  0  0  0
    0.5940   14.4750   18.4530 C   0  0  0  0  0  0  0  0  0  0  0  0
    1.8970   14.9080   18.1920 C   0  0  0  0  0  0  0  0  0  0  0  0
    2.9690   13.9990   18.2070 C   0  0  0  0  0  0  0  0  0  0  0  0
    2.7540   12.6470   18.4830 C   0  0  0  0  0  0  0  0  0  0  0  0
    1.4550   12.2200   18.7260 C   0  0  0  0  0  0  0  0  0  0  0  0
    1.1360   10.6660   20.1570 H   0  0  0  0  0  0  0  0  0  0  0  0
   -1.1300   10.2580   19.3730 H   0  0  0  0  0  0  0  0  0  0  0  0
   -0.7230   10.7480   17.7310 H   0  0  0  0  0  0  0  0  0  0  0  0
   -1.7250   12.7660   18.4020 H   0  0  0  0  0  0  0  0  0  0  0  0
   -0.2340   15.1790   18.4510 H   0  0  0  0  0  0  0  0  0  0  0  0
    2.0860   15.9570   17.9790 H   0  0  0  0  0  0  0  0  0  0  0  0
    3.9790   14.3550   18.0090 H   0  0  0  0  0  0  0  0  0  0  0  0
    3.5850   11.9480   18.5110 H   0  0  0  0  0  0  0  0  0  0  0  0
    2.3180    7.6930   17.9440 N   0  0  0  0  0  0  0  0  0  0  0  0
    1.8380    8.5770   18.8760 C   0  0  0  0  0  0  0  0  0  0  0  0
    1.6410    8.3070   20.0500 O   0  0  0  0  0  0  0  0  0  0  0  0
    1.6040    9.8020   18.3160 N   0  0  0  0  0  0  0  0  0  0  0  0
    2.9740    8.1290   17.3010 H   0  0  0  0  0  0  0  0  0  0  0  0
    1.4430    9.7970   17.3190 H   0  0  0  0  0  0  0  0  0  0  0  0
    2.7480    6.3890   18.3830 C   0  0  0  0  0  0  0  0  0  0  0  0
    3.1370    6.4700   19.4050 H   0  0  0  0  0  0  0  0  0  0  0  0
    1.8770    5.7260   18.4410 H   0  0  0  0  0  0  0  0  0  0  0  0
    3.9540    4.4130   17.2680 C   0  0  0  0  0  0  0  0  0  0  0  0
    4.9230    3.9360   16.3740 C   0  0  0  0  0  0  0  0  0  0  0  0
    5.7210    4.8330   15.6770 C   0  0  0  0  0  0  0  0  0  0  0  0
    6.6410    4.3700   14.8210 F   0  0  0  0  0  0  0  0  0  0  0  0
    5.5870    6.1990   15.8610 C   0  0  0  0  0  0  0  0  0  0  0  0
    4.6320    6.6840   16.7540 C   0  0  0  0  0  0  0  0  0  0  0  0
    3.7920    5.8040   17.4610 C   0  0  0  0  0  0  0  0  0  0  0  0
    5.0880    2.8770   16.2320 H   0  0  0  0  0  0  0  0  0  0  0  0
    6.2300    6.8790   15.3180 H   0  0  0  0  0  0  0  0  0  0  0  0
    4.5460    7.7590   16.9030 H   0  0  0  0  0  0  0  0  0  0  0  0
    1.9920    2.9870   17.4390 N   0  0  0  0  0  0  0  0  0  0  0  0
    3.1440    3.4250   18.0310 C   0  0  0  0  0  0  0  0  0  0  0  0
    3.4810    3.0240   19.1390 O   0  0  0  0  0  0  0  0  0  0  0  0
    1.3790    2.4110   18.0090 H   0  0  0  0  0  0  0  0  0  0  0  0
    1.5810    3.4490   16.6390 H   0  0  0  0  0  0  0  0  0  0  0  0
   -1.2650   12.6940   20.4410 N   0  0  0  0  0  0  0  0  0  0  0  0
   -2.5770   12.9020   20.8030 C   0  0  0  0  0  0  0  0  0  0  0  0
   -3.5000   12.8870   19.9950 O   0  0  0  0  0  0  0  0  0  0  0  0
   -0.5160   12.8920   21.0880 H   0  0  0  0  0  0  0  0  0  0  0  0
   -2.8480   13.1900   22.2420 C   0  0  0  0  0  0  0  0  0  0  0  0
   -3.8410   12.5270   22.9790 C   0  0  0  0  0  0  0  0  0  0  0  0
   -4.0400   12.8410   24.3280 C   0  0  0  0  0  0  0  0  0  0  0  0
   -3.2600   13.8200   24.9330 C   0  0  0  0  0  0  0  0  0  0  0  0
   -3.4540   14.1150   26.2250 F   0  0  0  0  0  0  0  0  0  0  0  0
   -2.2850   14.5000   24.2140 C   0  0  0  0  0  0  0  0  0  0  0  0
   -2.0810   14.1870   22.8670 C   0  0  0  0  0  0  0  0  0  0  0  0
   -4.4880   11.7820   22.5240 H   0  0  0  0  0  0  0  0  0  0  0  0
   -4.8040   12.3360   24.9070 H   0  0  0  0  0  0  0  0  0  0  0  0
   -1.6940   15.2700   24.7010 H   0  0  0  0  0  0  0  0  0  0  0  0
   -1.3190   14.7240   22.3040 H   0  0  0  0  0  0  0  0  0  0  0  0
  1 10  1  1  0  0  0
  2  3  1  0  0  0  0
  2  1  1  0  0  0  0
  2 11  1  0  0  0  0
  3 13  1  6  0  0  0
  3 42  1  0  0  0  0
  4  9  1  0  0  0  0
  4  3  1  0  0  0  0
  5  4  2  0  0  0  0
  6  7  2  0  0  0  0
  6  5  1  0  0  0  0
  7  8  1  0  0  0  0
  8 17  1  0  0  0  0
  8  9  2  0  0  0  0
  9  1  1  0  0  0  0
 12  2  1  0  0  0  0
 14  5  1  0  0  0  0
 15  6  1  0  0  0  0
 16  7  1  0  0  0  0
 18 24  1  0  0  0  0
 18 19  1  0  0  0  0
 19 20  2  0  0  0  0
 21 19  1  0  0  0  0
 21  1  1  0  0  0  0
 22 18  1  0  0  0  0
 23 21  1  0  0  0  0
 24 26  1  0  0  0  0
 24 25  1  0  0  0  0
 27 33  1  0  0  0  0
 27 38  1  0  0  0  0
 28 27  2  0  0  0  0
 29 31  2  0  0  0  0
 29 28  1  0  0  0  0
 30 29  1  0  0  0  0
 31 32  1  0  0  0  0
 32 36  1  0  0  0  0
 32 33  2  0  0  0  0
 33 24  1  0  0  0  0
 34 28  1  0  0  0  0
 35 31  1  0  0  0  0
 37 40  1  0  0  0  0
 37 38  1  0  0  0  0
 38 39  2  0  0  0  0
 41 37  1  0  0  0  0
 42 43  1  0  0  0  0
 42 45  1  0  0  0  0
 43 46  1  0  0  0  0
 44 43  2  0  0  0  0
 46 52  2  0  0  0  0
 46 47  1  0  0  0  0
 47 48  2  0  0  0  0
 48 54  1  0  0  0  0
 48 49  1  0  0  0  0
 49 50  1  0  0  0  0
 51 55  1  0  0  0  0
 51 49  2  0  0  0  0
 52 51  1  0  0  0  0
 53 47  1  0  0  0  0
 56 52  1  0  0  0  0
M  END
>  <MODEL>
3

>  <REMARK>
 VINA RESULT:   -10.300      1.136      1.164
 INTER + INTRA:         -11.988
 INTER:                 -10.980
 INTRA:                  -1.008
 UNBOUND:                 1.925
  Name = 
  6 active torsions:
  status: ('A' for Active; 'I' for Inactive)
    1  A    between atoms: C_2  and  C_4
    2  A    between atoms: C_10  and  C_11
    3  A    between atoms: C_11  and  N_12
    4  A    between atoms: N_15  and  C_16
    5  A    between atoms: C_18  and  N_19
    6  A    between atoms: C_20  and  C_22
                            x       y       z     vdW  Elec       q    Type
                         _______ _______ _______ _____ _____    ______ ____

>  <TORSDO>
F 6

$$$$
=
 OpenBabel07192307433D

 56 59  0  0  1  0  0  0  0  0999 V2000
    1.5750    8.0860   19.6140 C   0  0  2  0  0  0  0  0  0  0  0  0
    2.0140    9.2680   18.7280 C   0  0  0  0  0  0  0  0  0  0  0  0
    0.9210   10.3460   18.8720 C   0  0  2  0  0  0  0  0  0  0  0  0
    0.4460   10.0830   20.2750 C   0  0  0  0  0  0  0  0  0  0  0  0
   -0.3020   10.9200   21.0900 C   0  0  0  0  0  0  0  0  0  0  0  0
   -0.6710   10.4560   22.3560 C   0  0  0  0  0  0  0  0  0  0  0  0
   -0.3010    9.1700   22.7830 C   0  0  0  0  0  0  0  0  0  0  0  0
    0.4430    8.3300   21.9510 C   0  0  0  0  0  0  0  0  0  0  0  0
    0.8200    8.8010   20.7000 C   0  0  0  0  0  0  0  0  0  0  0  0
    0.8890    7.4300   19.0640 H   0  0  0  0  0  0  0  0  0  0  0  0
    2.1920    8.9590   17.6930 H   0  0  0  0  0  0  0  0  0  0  0  0
    2.9630    9.6750   19.1060 H   0  0  0  0  0  0  0  0  0  0  0  0
    1.3490   11.3500   18.7690 H   0  0  0  0  0  0  0  0  0  0  0  0
   -0.5950   11.9110   20.7560 H   0  0  0  0  0  0  0  0  0  0  0  0
   -1.2530   11.0940   23.0170 H   0  0  0  0  0  0  0  0  0  0  0  0
   -0.6030    8.8230   23.7700 H   0  0  0  0  0  0  0  0  0  0  0  0
    0.7150    7.3280   22.2750 H   0  0  0  0  0  0  0  0  0  0  0  0
    4.1670    5.6120   20.0700 N   0  0  0  0  0  0  0  0  0  0  0  0
    3.0040    6.1130   19.5470 C   0  0  0  0  0  0  0  0  0  0  0  0
    2.3360    5.5610   18.6870 O   0  0  0  0  0  0  0  0  0  0  0  0
    2.6890    7.3170   20.1140 N   0  0  0  0  0  0  0  0  0  0  0  0
    4.2430    5.7760   21.0710 H   0  0  0  0  0  0  0  0  0  0  0  0
    3.4690    7.8260   20.5050 H   0  0  0  0  0  0  0  0  0  0  0  0
    4.5840    4.2860   19.6880 C   0  0  0  0  0  0  0  0  0  0  0  0
    5.2700    3.8970   20.4490 H   0  0  0  0  0  0  0  0  0  0  0  0
    3.7130    3.6210   19.6950 H   0  0  0  0  0  0  0  0  0  0  0  0
    4.7150    3.5600   17.2260 C   0  0  0  0  0  0  0  0  0  0  0  0
    5.3570    3.6170   15.9800 C   0  0  0  0  0  0  0  0  0  0  0  0
    6.5060    4.3800   15.8300 C   0  0  0  0  0  0  0  0  0  0  0  0
    7.1110    4.4330   14.6360 F   0  0  0  0  0  0  0  0  0  0  0  0
    7.0440    5.0780   16.8980 C   0  0  0  0  0  0  0  0  0  0  0  0
    6.4190    5.0220   18.1430 C   0  0  0  0  0  0  0  0  0  0  0  0
    5.2400    4.2760   18.3260 C   0  0  0  0  0  0  0  0  0  0  0  0
    4.9940    3.0550   15.1320 H   0  0  0  0  0  0  0  0  0  0  0  0
    7.9500    5.6550   16.7610 H   0  0  0  0  0  0  0  0  0  0  0  0
    6.8580    5.5620   18.9800 H   0  0  0  0  0  0  0  0  0  0  0  0
    2.3190    3.2420   16.9670 N   0  0  0  0  0  0  0  0  0  0  0  0
    3.5100    2.6990   17.3650 C   0  0  0  0  0  0  0  0  0  0  0  0
    3.5690    1.5640   17.8190 O   0  0  0  0  0  0  0  0  0  0  0  0
    1.4820    2.7040   17.1760 H   0  0  0  0  0  0  0  0  0  0  0  0
    2.2020    4.2310   16.7940 H   0  0  0  0  0  0  0  0  0  0  0  0
   -0.1640   10.1790   17.9260 N   0  0  0  0  0  0  0  0  0  0  0  0
   -1.1070   11.1660   17.7520 C   0  0  0  0  0  0  0  0  0  0  0  0
   -1.0830   12.2240   18.3720 O   0  0  0  0  0  0  0  0  0  0  0  0
   -0.3090    9.2570   17.5410 H   0  0  0  0  0  0  0  0  0  0  0  0
   -2.2090   10.8910   16.7850 C   0  0  0  0  0  0  0  0  0  0  0  0
   -3.4610   11.5220   16.8560 C   0  0  0  0  0  0  0  0  0  0  0  0
   -4.4510   11.2230   15.9140 C   0  0  0  0  0  0  0  0  0  0  0  0
   -4.1960   10.2890   14.9150 C   0  0  0  0  0  0  0  0  0  0  0  0
   -5.1470   10.0080   14.0140 F   0  0  0  0  0  0  0  0  0  0  0  0
   -2.9700    9.6410   14.8400 C   0  0  0  0  0  0  0  0  0  0  0  0
   -1.9770    9.9400   15.7780 C   0  0  0  0  0  0  0  0  0  0  0  0
   -3.7000   12.2290   17.6450 H   0  0  0  0  0  0  0  0  0  0  0  0
   -5.4220   11.7030   15.9580 H   0  0  0  0  0  0  0  0  0  0  0  0
   -2.7940    8.9070   14.0590 H   0  0  0  0  0  0  0  0  0  0  0  0
   -1.0180    9.4280   15.7210 H   0  0  0  0  0  0  0  0  0  0  0  0
  1 10  1  6  0  0  0
  1 21  1  0  0  0  0
  1  9  1  0  0  0  0
  2  3  1  0  0  0  0
  2 12  1  0  0  0  0
  2  1  1  0  0  0  0
  3 13  1  6  0  0  0
  3  4  1  0  0  0  0
  4  9  2  0  0  0  0
  4  5  1  0  0  0  0
  5  6  2  0  0  0  0
  6  7  1  0  0  0  0
  6 15  1  0  0  0  0
  7 16  1  0  0  0  0
  8 17  1  0  0  0  0
  8  7  2  0  0  0  0
  9  8  1  0  0  0  0
 11  2  1  0  0  0  0
 14  5  1  0  0  0  0
 18 22  1  0  0  0  0
 19 18  1  0  0  0  0
 19 21  1  0  0  0  0
 20 19  2  0  0  0  0
 21 23  1  0  0  0  0
 24 26  1  0  0  0  0
 24 18  1  0  0  0  0
 24 25  1  0  0  0  0
 27 38  1  0  0  0  0
 27 33  1  0  0  0  0
 28 27  2  0  0  0  0
 29 28  1  0  0  0  0
 29 31  2  0  0  0  0
 30 29  1  0  0  0  0
 31 32  1  0  0  0  0
 32 33  2  0  0  0  0
 32 36  1  0  0  0  0
 33 24  1  0  0  0  0
 34 28  1  0  0  0  0
 35 31  1  0  0  0  0
 37 40  1  0  0  0  0
 37 38  1  0  0  0  0
 38 39  2  0  0  0  0
 41 37  1  0  0  0  0
 42  3  1  0  0  0  0
 43 42  1  0  0  0  0
 43 44  2  0  0  0  0
 45 42  1  0  0  0  0
 46 47  1  0  0  0  0
 46 43  1  0  0  0  0
 47 53  1  0  0  0  0
 48 54  1  0  0  0  0
 48 47  2  0  0  0  0
 49 48  1  0  0  0  0
 50 49  1  0  0  0  0
 51 49  2  0  0  0  0
 51 52  1  0  0  0  0
 52 46  2  0  0  0  0
 55 51  1  0  0  0  0
 56 52  1  0  0  0  0
M  END
>  <MODEL>
4

>  <REMARK>
 VINA RESULT:   -10.041      3.345      4.818
 INTER + INTRA:         -11.638
 INTER:                 -10.759
 INTRA:                  -0.880
 UNBOUND:                 1.925
  Name = 
  6 active torsions:
  status: ('A' for Active; 'I' for Inactive)
    1  A    between atoms: C_2  and  C_4
    2  A    between atoms: C_10  and  C_11
    3  A    between atoms: C_11  and  N_12
    4  A    between atoms: N_15  and  C_16
    5  A    between atoms: C_18  and  N_19
    6  A    between atoms: C_20  and  C_22
                            x       y       z     vdW  Elec       q    Type
                         _______ _______ _______ _____ _____    ______ ____

>  <TORSDO>
F 6

$$$$
=
 OpenBabel07192307433D

 56 59  0  0  1  0  0  0  0  0999 V2000
    0.6280   10.1560   19.3890 C   0  0  2  0  0  0  0  0  0  0  0  0
   -0.8970   10.1350   19.1640 C   0  0  0  0  0  0  0  0  0  0  0  0
   -1.3710   11.5970   19.2880 C   0  0  2  0  0  0  0  0  0  0  0  0
   -0.1540   12.3340   18.8010 C   0  0  0  0  0  0  0  0  0  0  0  0
   -0.0690   13.6530   18.3820 C   0  0  0  0  0  0  0  0  0  0  0  0
    1.1810   14.1500   18.0040 C   0  0  0  0  0  0  0  0  0  0  0  0
    2.3230   13.3330   18.0600 C   0  0  0  0  0  0  0  0  0  0  0  0
    2.2310   12.0090   18.4930 C   0  0  0  0  0  0  0  0  0  0  0  0
    0.9830   11.5150   18.8530 C   0  0  0  0  0  0  0  0  0  0  0  0
    0.8580   10.1140   20.4610 H   0  0  0  0  0  0  0  0  0  0  0  0
   -1.4020    9.4500   19.8520 H   0  0  0  0  0  0  0  0  0  0  0  0
   -1.1120    9.7800   18.1470 H   0  0  0  0  0  0  0  0  0  0  0  0
   -2.2420   11.7790   18.6460 H   0  0  0  0  0  0  0  0  0  0  0  0
   -0.9510   14.2880   18.3480 H   0  0  0  0  0  0  0  0  0  0  0  0
    1.2740   15.1800   17.6670 H   0  0  0  0  0  0  0  0  0  0  0  0
    3.2900   13.7390   17.7680 H   0  0  0  0  0  0  0  0  0  0  0  0
    3.1170   11.3820   18.5520 H   0  0  0  0  0  0  0  0  0  0  0  0
    2.4390    7.1340   18.5910 N   0  0  0  0  0  0  0  0  0  0  0  0
    1.9830    8.1310   19.4130 C   0  0  0  0  0  0  0  0  0  0  0  0
    2.1530    8.1640   20.6220 O   0  0  0  0  0  0  0  0  0  0  0  0
    1.3090    9.0840   18.7020 N   0  0  0  0  0  0  0  0  0  0  0  0
    2.7840    7.4930   17.7040 H   0  0  0  0  0  0  0  0  0  0  0  0
    0.9200    8.7720   17.8240 H   0  0  0  0  0  0  0  0  0  0  0  0
    3.2890    6.1110   19.1470 C   0  0  0  0  0  0  0  0  0  0  0  0
    4.2540    6.1310   18.6290 H   0  0  0  0  0  0  0  0  0  0  0  0
    3.5010    6.3530   20.1950 H   0  0  0  0  0  0  0  0  0  0  0  0
    3.2830    3.6550   18.3910 C   0  0  0  0  0  0  0  0  0  0  0  0
    2.6570    2.4010   18.3560 C   0  0  0  0  0  0  0  0  0  0  0  0
    1.4230    2.2280   18.9680 C   0  0  0  0  0  0  0  0  0  0  0  0
    0.8320    1.0270   18.9360 F   0  0  0  0  0  0  0  0  0  0  0  0
    0.7870    3.2830   19.6020 C   0  0  0  0  0  0  0  0  0  0  0  0
    1.3970    4.5370   19.6350 C   0  0  0  0  0  0  0  0  0  0  0  0
    2.6580    4.7420   19.0440 C   0  0  0  0  0  0  0  0  0  0  0  0
    3.0990    1.5620   17.8380 H   0  0  0  0  0  0  0  0  0  0  0  0
   -0.1820    3.1290   20.0600 H   0  0  0  0  0  0  0  0  0  0  0  0
    0.8830    5.3630   20.1230 H   0  0  0  0  0  0  0  0  0  0  0  0
    5.7140    3.6350   18.4400 N   0  0  0  0  0  0  0  0  0  0  0  0
    4.5850    3.8170   17.6890 C   0  0  0  0  0  0  0  0  0  0  0  0
    4.6530    4.1070   16.5010 O   0  0  0  0  0  0  0  0  0  0  0  0
    6.5980    3.8670   17.9940 H   0  0  0  0  0  0  0  0  0  0  0  0
    5.6970    3.6100   19.4510 H   0  0  0  0  0  0  0  0  0  0  0  0
   -1.6840   11.9740   20.6520 N   0  0  0  0  0  0  0  0  0  0  0  0
   -2.7060   12.8560   20.9230 C   0  0  0  0  0  0  0  0  0  0  0  0
   -3.3980   13.3610   20.0450 O   0  0  0  0  0  0  0  0  0  0  0  0
   -1.0220   11.7190   21.3700 H   0  0  0  0  0  0  0  0  0  0  0  0
   -2.9320   13.2170   22.3530 C   0  0  0  0  0  0  0  0  0  0  0  0
   -3.9790   12.6810   23.1190 C   0  0  0  0  0  0  0  0  0  0  0  0
   -4.1320   13.0580   24.4580 C   0  0  0  0  0  0  0  0  0  0  0  0
   -3.2510   13.9720   25.0240 C   0  0  0  0  0  0  0  0  0  0  0  0
   -3.4010   14.3270   26.3070 F   0  0  0  0  0  0  0  0  0  0  0  0
   -2.2200   14.5270   24.2770 C   0  0  0  0  0  0  0  0  0  0  0  0
   -2.0620   14.1510   22.9400 C   0  0  0  0  0  0  0  0  0  0  0  0
   -4.7030   11.9910   22.6940 H   0  0  0  0  0  0  0  0  0  0  0  0
   -4.9370   12.6510   25.0600 H   0  0  0  0  0  0  0  0  0  0  0  0
   -1.5490   15.2490   24.7340 H   0  0  0  0  0  0  0  0  0  0  0  0
   -1.2560   14.5900   22.3540 H   0  0  0  0  0  0  0  0  0  0  0  0
  1 10  1  1  0  0  0
  2  3  1  0  0  0  0
  2  1  1  0  0  0  0
  2 11  1  0  0  0  0
  3 13  1  6  0  0  0
  3 42  1  0  0  0  0
  4  9  1  0  0  0  0
  4  3  1  0  0  0  0
  5  4  2  0  0  0  0
  6  7  2  0  0  0  0
  6  5  1  0  0  0  0
  7  8  1  0  0  0  0
  8 17  1  0  0  0  0
  8  9  2  0  0  0  0
  9  1  1  0  0  0  0
 12  2  1  0  0  0  0
 14  5  1  0  0  0  0
 15  6  1  0  0  0  0
 16  7  1  0  0  0  0
 18 24  1  0  0  0  0
 18 19  1  0  0  0  0
 19 20  2  0  0  0  0
 21  1  1  0  0  0  0
 21 19  1  0  0  0  0
 22 18  1  0  0  0  0
 23 21  1  0  0  0  0
 24 26  1  0  0  0  0
 25 24  1  0  0  0  0
 27 33  1  0  0  0  0
 28 27  2  0  0  0  0
 28 29  1  0  0  0  0
 29 31  2  0  0  0  0
 30 29  1  0  0  0  0
 31 32  1  0  0  0  0
 31 35  1  0  0  0  0
 32 36  1  0  0  0  0
 33 24  1  0  0  0  0
 33 32  2  0  0  0  0
 34 28  1  0  0  0  0
 37 41  1  0  0  0  0
 38 27  1  0  0  0  0
 38 37  1  0  0  0  0
 39 38  2  0  0  0  0
 40 37  1  0  0  0  0
 42 43  1  0  0  0  0
 42 45  1  0  0  0  0
 43 46  1  0  0  0  0
 44 43  2  0  0  0  0
 46 52  2  0  0  0  0
 46 47  1  0  0  0  0
 47 48  2  0  0  0  0
 48 49  1  0  0  0  0
 48 54  1  0  0  0  0
 49 50  1  0  0  0  0
 51 55  1  0  0  0  0
 51 49  2  0  0  0  0
 52 51  1  0  0  0  0
 53 47  1  0  0  0  0
 56 52  1  0  0  0  0
M  END
>  <MODEL>
5

>  <REMARK>
 VINA RESULT:    -9.889      2.029      2.683
 INTER + INTRA:         -11.433
 INTER:                 -10.339
 INTRA:                  -1.094
 UNBOUND:                 1.925
  Name = 
  6 active torsions:
  status: ('A' for Active; 'I' for Inactive)
    1  A    between atoms: C_2  and  C_4
    2  A    between atoms: C_10  and  C_11
    3  A    between atoms: C_11  and  N_12
    4  A    between atoms: N_15  and  C_16
    5  A    between atoms: C_18  and  N_19
    6  A    between atoms: C_20  and  C_22
                            x       y       z     vdW  Elec       q    Type
                         _______ _______ _______ _____ _____    ______ ____

>  <TORSDO>
F 6

$$$$
=
 OpenBabel07192307433D

 56 59  0  0  1  0  0  0  0  0999 V2000
    1.7260    7.9700   19.4410 C   0  0  2  0  0  0  0  0  0  0  0  0
    2.1190    9.2040   18.6040 C   0  0  0  0  0  0  0  0  0  0  0  0
    1.0060   10.2480   18.8250 C   0  0  2  0  0  0  0  0  0  0  0  0
    0.5680    9.9060   20.2220 C   0  0  0  0  0  0  0  0  0  0  0  0
   -0.1790   10.6840   21.0940 C   0  0  0  0  0  0  0  0  0  0  0  0
   -0.5090   10.1510   22.3430 C   0  0  0  0  0  0  0  0  0  0  0  0
   -0.1020    8.8540   22.6980 C   0  0  0  0  0  0  0  0  0  0  0  0
    0.6410    8.0730   21.8100 C   0  0  0  0  0  0  0  0  0  0  0  0
    0.9800    8.6140   20.5770 C   0  0  0  0  0  0  0  0  0  0  0  0
    1.0430    7.3260   18.8730 H   0  0  0  0  0  0  0  0  0  0  0  0
    2.2800    8.9500   17.5520 H   0  0  0  0  0  0  0  0  0  0  0  0
    3.0670    9.6140   18.9810 H   0  0  0  0  0  0  0  0  0  0  0  0
    1.4090   11.2660   18.7620 H   0  0  0  0  0  0  0  0  0  0  0  0
   -0.5020   11.6840   20.8160 H   0  0  0  0  0  0  0  0  0  0  0  0
   -1.0910   10.7420   23.0470 H   0  0  0  0  0  0  0  0  0  0  0  0
   -0.3740    8.4520   23.6730 H   0  0  0  0  0  0  0  0  0  0  0  0
    0.9420    7.0630   22.0780 H   0  0  0  0  0  0  0  0  0  0  0  0
    4.4260    5.5820   19.6820 N   0  0  0  0  0  0  0  0  0  0  0  0
    3.2480    6.0830   19.1930 C   0  0  0  0  0  0  0  0  0  0  0  0
    2.6200    5.5970   18.2650 O   0  0  0  0  0  0  0  0  0  0  0  0
    2.8680    7.2040   19.8780 N   0  0  0  0  0  0  0  0  0  0  0  0
    4.4790    5.6420   20.6960 H   0  0  0  0  0  0  0  0  0  0  0  0
    3.6170    7.7030   20.3360 H   0  0  0  0  0  0  0  0  0  0  0  0
    4.9110    4.3250   19.1700 C   0  0  0  0  0  0  0  0  0  0  0  0
    5.6110    3.8940   19.8940 H   0  0  0  0  0  0  0  0  0  0  0  0
    4.0740    3.6210   19.1000 H   0  0  0  0  0  0  0  0  0  0  0  0
    6.7870    5.1880   17.6410 C   0  0  0  0  0  0  0  0  0  0  0  0
    7.3650    5.2770   16.3660 C   0  0  0  0  0  0  0  0  0  0  0  0
    6.7420    4.6720   15.2820 C   0  0  0  0  0  0  0  0  0  0  0  0
    7.3020    4.7570   14.0680 F   0  0  0  0  0  0  0  0  0  0  0  0
    5.5450    3.9940   15.4350 C   0  0  0  0  0  0  0  0  0  0  0  0
    4.9580    3.9060   16.6970 C   0  0  0  0  0  0  0  0  0  0  0  0
    5.5730    4.4880   17.8210 C   0  0  0  0  0  0  0  0  0  0  0  0
    8.2760    5.8320   16.1960 H   0  0  0  0  0  0  0  0  0  0  0  0
    5.0700    3.5420   14.5730 H   0  0  0  0  0  0  0  0  0  0  0  0
    4.0090    3.3830   16.8030 H   0  0  0  0  0  0  0  0  0  0  0  0
    7.9980    7.1110   18.5070 N   0  0  0  0  0  0  0  0  0  0  0  0
    7.4570    5.8830   18.7730 C   0  0  0  0  0  0  0  0  0  0  0  0
    7.5330    5.3850   19.8900 O   0  0  0  0  0  0  0  0  0  0  0  0
    8.5600    7.5280   19.2430 H   0  0  0  0  0  0  0  0  0  0  0  0
    8.1410    7.4490   17.5650 H   0  0  0  0  0  0  0  0  0  0  0  0
   -0.0960   10.1020   17.8950 N   0  0  0  0  0  0  0  0  0  0  0  0
   -1.0360   11.0980   17.7520 C   0  0  0  0  0  0  0  0  0  0  0  0
   -0.9950   12.1450   18.3890 O   0  0  0  0  0  0  0  0  0  0  0  0
   -0.2540    9.1870   17.4980 H   0  0  0  0  0  0  0  0  0  0  0  0
   -2.1560   10.8440   16.8000 C   0  0  0  0  0  0  0  0  0  0  0  0
   -3.3990   11.4900   16.8950 C   0  0  0  0  0  0  0  0  0  0  0  0
   -4.4070   11.2110   15.9660 C   0  0  0  0  0  0  0  0  0  0  0  0
   -4.1790   10.2820   14.9560 C   0  0  0  0  0  0  0  0  0  0  0  0
   -5.1470   10.0200   14.0680 F   0  0  0  0  0  0  0  0  0  0  0  0
   -2.9620    9.6190   14.8580 C   0  0  0  0  0  0  0  0  0  0  0  0
   -1.9510    9.8980   15.7820 C   0  0  0  0  0  0  0  0  0  0  0  0
   -3.6170   12.1940   17.6940 H   0  0  0  0  0  0  0  0  0  0  0  0
   -5.3710   11.7030   16.0290 H   0  0  0  0  0  0  0  0  0  0  0  0
   -2.8070    8.8890   14.0690 H   0  0  0  0  0  0  0  0  0  0  0  0
   -1.0000    9.3750   15.7070 H   0  0  0  0  0  0  0  0  0  0  0  0
  1 10  1  6  0  0  0
  1 21  1  0  0  0  0
  1  9  1  0  0  0  0
  2  3  1  0  0  0  0
  2 12  1  0  0  0  0
  2  1  1  0  0  0  0
  3 13  1  6  0  0  0
  3  4  1  0  0  0  0
  4  9  2  0  0  0  0
  4  5  1  0  0  0  0
  5  6  2  0  0  0  0
  6  7  1  0  0  0  0
  6 15  1  0  0  0  0
  7 16  1  0  0  0  0
  8 17  1  0  0  0  0
  8  7  2  0  0  0  0
  9  8  1  0  0  0  0
 11  2  1  0  0  0  0
 14  5  1  0  0  0  0
 18 22  1  0  0  0  0
 19 18  1  0  0  0  0
 19 21  1  0  0  0  0
 20 19  2  0  0  0  0
 21 23  1  0  0  0  0
 24 18  1  0  0  0  0
 24 25  1  0  0  0  0
 26 24  1  0  0  0  0
 27 33  1  0  0  0  0
 27 38  1  0  0  0  0
 28 27  2  0  0  0  0
 29 31  2  0  0  0  0
 29 28  1  0  0  0  0
 30 29  1  0  0  0  0
 31 32  1  0  0  0  0
 32 36  1  0  0  0  0
 32 33  2  0  0  0  0
 33 24  1  0  0  0  0
 34 28  1  0  0  0  0
 35 31  1  0  0  0  0
 37 38  1  0  0  0  0
 37 40  1  0  0  0  0
 38 39  2  0  0  0  0
 41 37  1  0  0  0  0
 42  3  1  0  0  0  0
 43 42  1  0  0  0  0
 43 44  2  0  0  0  0
 45 42  1  0  0  0  0
 46 47  1  0  0  0  0
 46 43  1  0  0  0  0
 47 53  1  0  0  0  0
 48 54  1  0  0  0  0
 48 47  2  0  0  0  0
 49 48  1  0  0  0  0
 50 49  1  0  0  0  0
 51 49  2  0  0  0  0
 51 52  1  0  0  0  0
 52 46  2  0  0  0  0
 55 51  1  0  0  0  0
 56 52  1  0  0  0  0
M  END
>  <MODEL>
6

>  <REMARK>
 VINA RESULT:    -9.653      3.433      5.032
 INTER + INTRA:         -11.113
 INTER:                 -10.868
 INTRA:                  -0.245
 UNBOUND:                 1.925
  Name = 
  6 active torsions:
  status: ('A' for Active; 'I' for Inactive)
    1  A    between atoms: C_2  and  C_4
    2  A    between atoms: C_10  and  C_11
    3  A    between atoms: C_11  and  N_12
    4  A    between atoms: N_15  and  C_16
    5  A    between atoms: C_18  and  N_19
    6  A    between atoms: C_20  and  C_22
                            x       y       z     vdW  Elec       q    Type
                         _______ _______ _______ _____ _____    ______ ____

>  <TORSDO>
F 6

$$$$
=
 OpenBabel07192307433D

 56 59  0  0  1  0  0  0  0  0999 V2000
    2.1110    5.2980   18.4070 C   0  0  2  0  0  0  0  0  0  0  0  0
    3.1460    6.1440   19.1760 C   0  0  0  0  0  0  0  0  0  0  0  0
    2.7990    5.9950   20.6710 C   0  0  2  0  0  0  0  0  0  0  0  0
    2.2120    4.6100   20.6900 C   0  0  0  0  0  0  0  0  0  0  0  0
    2.0060    3.7890   21.7890 C   0  0  0  0  0  0  0  0  0  0  0  0
    1.4060    2.5440   21.5830 C   0  0  0  0  0  0  0  0  0  0  0  0
    1.0120    2.1440   20.2950 C   0  0  0  0  0  0  0  0  0  0  0  0
    1.2130    2.9810   19.1960 C   0  0  0  0  0  0  0  0  0  0  0  0
    1.8250    4.2100   19.4040 C   0  0  0  0  0  0  0  0  0  0  0  0
    1.1980    5.8800   18.2280 H   0  0  0  0  0  0  0  0  0  0  0  0
    3.1620    7.1820   18.8310 H   0  0  0  0  0  0  0  0  0  0  0  0
    4.1510    5.7350   19.0040 H   0  0  0  0  0  0  0  0  0  0  0  0
    3.7040    6.0630   21.2880 H   0  0  0  0  0  0  0  0  0  0  0  0
    2.3030    4.1030   22.7860 H   0  0  0  0  0  0  0  0  0  0  0  0
    1.2370    1.8790   22.4280 H   0  0  0  0  0  0  0  0  0  0  0  0
    0.5390    1.1730   20.1550 H   0  0  0  0  0  0  0  0  0  0  0  0
    0.8930    2.6780   18.2020 H   0  0  0  0  0  0  0  0  0  0  0  0
    4.0630    3.6360   15.8620 N   0  0  0  0  0  0  0  0  0  0  0  0
    3.8260    4.1520   17.1100 C   0  0  0  0  0  0  0  0  0  0  0  0
    4.5870    4.0490   18.0590 O   0  0  0  0  0  0  0  0  0  0  0  0
    2.6210    4.7960   17.1530 N   0  0  0  0  0  0  0  0  0  0  0  0
    3.7560    4.2600   15.1210 H   0  0  0  0  0  0  0  0  0  0  0  0
    1.9480    4.4980   16.4620 H   0  0  0  0  0  0  0  0  0  0  0  0
    5.3470    3.0380   15.5930 C   0  0  0  0  0  0  0  0  0  0  0  0
    5.8930    2.9290   16.5370 H   0  0  0  0  0  0  0  0  0  0  0  0
    5.1950    2.0210   15.2110 H   0  0  0  0  0  0  0  0  0  0  0  0
    7.0660    4.8540   15.0010 C   0  0  0  0  0  0  0  0  0  0  0  0
    7.8020    5.5550   14.0350 C   0  0  0  0  0  0  0  0  0  0  0  0
    7.6290    5.2620   12.6890 C   0  0  0  0  0  0  0  0  0  0  0  0
    8.3380    5.9320   11.7710 F   0  0  0  0  0  0  0  0  0  0  0  0
    6.7260    4.2950   12.2790 C   0  0  0  0  0  0  0  0  0  0  0  0
    5.9830    3.5970   13.2310 C   0  0  0  0  0  0  0  0  0  0  0  0
    6.1490    3.8540   14.6060 C   0  0  0  0  0  0  0  0  0  0  0  0
    8.4860    6.3450   14.3080 H   0  0  0  0  0  0  0  0  0  0  0  0
    6.5980    4.0930   11.2240 H   0  0  0  0  0  0  0  0  0  0  0  0
    5.2660    2.8500   12.8990 H   0  0  0  0  0  0  0  0  0  0  0  0
    7.8750    4.3060   17.2280 N   0  0  0  0  0  0  0  0  0  0  0  0
    7.2430    5.2220   16.4320 C   0  0  0  0  0  0  0  0  0  0  0  0
    6.8400    6.2850   16.8850 O   0  0  0  0  0  0  0  0  0  0  0  0
    7.8850    4.5010   18.2250 H   0  0  0  0  0  0  0  0  0  0  0  0
    8.0240    3.3480   16.9420 H   0  0  0  0  0  0  0  0  0  0  0  0
    1.8260    6.9680   21.1240 N   0  0  0  0  0  0  0  0  0  0  0  0
    1.6410    8.1500   20.4440 C   0  0  0  0  0  0  0  0  0  0  0  0
    2.2740    8.4430   19.4350 O   0  0  0  0  0  0  0  0  0  0  0  0
    1.4260    6.8350   22.0420 H   0  0  0  0  0  0  0  0  0  0  0  0
    0.6440    9.1090   21.0050 C   0  0  0  0  0  0  0  0  0  0  0  0
   -0.0310   10.0540   20.2180 C   0  0  0  0  0  0  0  0  0  0  0  0
   -0.9580   10.9220   20.8070 C   0  0  0  0  0  0  0  0  0  0  0  0
   -1.2000   10.8520   22.1740 C   0  0  0  0  0  0  0  0  0  0  0  0
   -2.0900   11.6840   22.7320 F   0  0  0  0  0  0  0  0  0  0  0  0
   -0.5270    9.9360   22.9720 C   0  0  0  0  0  0  0  0  0  0  0  0
    0.3980    9.0650   22.3880 C   0  0  0  0  0  0  0  0  0  0  0  0
    0.1620   10.1550   19.1540 H   0  0  0  0  0  0  0  0  0  0  0  0
   -1.4860   11.6570   20.2100 H   0  0  0  0  0  0  0  0  0  0  0  0
   -0.7210    9.9040   24.0400 H   0  0  0  0  0  0  0  0  0  0  0  0
    0.9280    8.3500   23.0140 H   0  0  0  0  0  0  0  0  0  0  0  0
  1 10  1  6  0  0  0
  1  2  1  0  0  0  0
  1  9  1  0  0  0  0
  2  3  1  0  0  0  0
  3  4  1  0  0  0  0
  3 42  1  0  0  0  0
  3 13  1  1  0  0  0
  4  5  1  0  0  0  0
  5 14  1  0  0  0  0
  6  5  2  0  0  0  0
  6 15  1  0  0  0  0
  7  6  1  0  0  0  0
  8  9  1  0  0  0  0
  8  7  2  0  0  0  0
  9  4  2  0  0  0  0
 11  2  1  0  0  0  0
 12  2  1  0  0  0  0
 16  7  1  0  0  0  0
 17  8  1  0  0  0  0
 18 19  1  0  0  0  0
 19 21  1  0  0  0  0
 19 20  2  0  0  0  0
 21  1  1  0  0  0  0
 22 18  1  0  0  0  0
 23 21  1  0  0  0  0
 24 18  1  0  0  0  0
 24 25  1  0  0  0  0
 26 24  1  0  0  0  0
 27 38  1  0  0  0  0
 28 34  1  0  0  0  0
 28 27  2  0  0  0  0
 29 28  1  0  0  0  0
 30 29  1  0  0  0  0
 31 29  2  0  0  0  0
 31 32  1  0  0  0  0
 32 33  2  0  0  0  0
 33 27  1  0  0  0  0
 33 24  1  0  0  0  0
 35 31  1  0  0  0  0
 36 32  1  0  0  0  0
 37 40  1  0  0  0  0
 38 39  2  0  0  0  0
 38 37  1  0  0  0  0
 41 37  1  0  0  0  0
 42 45  1  0  0  0  0
 43 46  1  0  0  0  0
 43 42  1  0  0  0  0
 44 43  2  0  0  0  0
 46 52  1  0  0  0  0
 47 48  1  0  0  0  0
 47 46  2  0  0  0  0
 48 49  2  0  0  0  0
 49 50  1  0  0  0  0
 49 51  1  0  0  0  0
 51 55  1  0  0  0  0
 52 51  2  0  0  0  0
 52 56  1  0  0  0  0
 53 47  1  0  0  0  0
 54 48  1  0  0  0  0
M  END
>  <MODEL>
7

>  <REMARK>
 VINA RESULT:    -9.285      3.277      6.162
 INTER + INTRA:         -10.616
 INTER:                 -11.206
 INTRA:                   0.590
 UNBOUND:                 1.925
  Name = 
  6 active torsions:
  status: ('A' for Active; 'I' for Inactive)
    1  A    between atoms: C_2  and  C_4
    2  A    between atoms: C_10  and  C_11
    3  A    between atoms: C_11  and  N_12
    4  A    between atoms: N_15  and  C_16
    5  A    between atoms: C_18  and  N_19
    6  A    between atoms: C_20  and  C_22
                            x       y       z     vdW  Elec       q    Type
                         _______ _______ _______ _____ _____    ______ ____

>  <TORSDO>
F 6

$$$$
=
 OpenBabel07192307433D

 56 59  0  0  1  0  0  0  0  0999 V2000
    1.2070   10.0900   18.6960 C   0  0  2  0  0  0  0  0  0  0  0  0
   -0.2440   10.0110   18.1810 C   0  0  0  0  0  0  0  0  0  0  0  0
   -0.8820   11.3830   18.4770 C   0  0  2  0  0  0  0  0  0  0  0  0
    0.3190   12.2830   18.3800 C   0  0  0  0  0  0  0  0  0  0  0  0
    0.3400   13.6620   18.2350 C   0  0  0  0  0  0  0  0  0  0  0  0
    1.5780   14.3080   18.2040 C   0  0  0  0  0  0  0  0  0  0  0  0
    2.7710   13.5750   18.3280 C   0  0  0  0  0  0  0  0  0  0  0  0
    2.7410   12.1880   18.4850 C   0  0  0  0  0  0  0  0  0  0  0  0
    1.5080   11.5490   18.4990 C   0  0  0  0  0  0  0  0  0  0  0  0
    1.2460    9.8490   19.7660 H   0  0  0  0  0  0  0  0  0  0  0  0
   -0.7890    9.1700   18.6200 H   0  0  0  0  0  0  0  0  0  0  0  0
   -0.2370    9.8530   17.0930 H   0  0  0  0  0  0  0  0  0  0  0  0
   -1.6390   11.6310   17.7240 H   0  0  0  0  0  0  0  0  0  0  0  0
   -0.5830   14.2300   18.1480 H   0  0  0  0  0  0  0  0  0  0  0  0
    1.6220   15.3890   18.0870 H   0  0  0  0  0  0  0  0  0  0  0  0
    3.7270   14.0960   18.3090 H   0  0  0  0  0  0  0  0  0  0  0  0
    3.6630   11.6230   18.5970 H   0  0  0  0  0  0  0  0  0  0  0  0
    3.3210    7.3480   17.6640 N   0  0  0  0  0  0  0  0  0  0  0  0
    2.6040    8.0970   18.5600 C   0  0  0  0  0  0  0  0  0  0  0  0
    2.4280    7.7980   19.7310 O   0  0  0  0  0  0  0  0  0  0  0  0
    2.1060    9.2250   17.9690 N   0  0  0  0  0  0  0  0  0  0  0  0
    3.8800    7.9240   17.0390 H   0  0  0  0  0  0  0  0  0  0  0  0
    1.9940    9.1730   16.9670 H   0  0  0  0  0  0  0  0  0  0  0  0
    4.0330    6.1900   18.1430 C   0  0  0  0  0  0  0  0  0  0  0  0
    4.6930    6.4950   18.9640 H   0  0  0  0  0  0  0  0  0  0  0  0
    3.3160    5.4820   18.5760 H   0  0  0  0  0  0  0  0  0  0  0  0
    6.2170    5.7140   16.8760 C   0  0  0  0  0  0  0  0  0  0  0  0
    6.9000    5.0430   15.8510 C   0  0  0  0  0  0  0  0  0  0  0  0
    6.2070    4.1900   15.0030 C   0  0  0  0  0  0  0  0  0  0  0  0
    6.8660    3.5490   14.0290 F   0  0  0  0  0  0  0  0  0  0  0  0
    4.8420    4.0020   15.1410 C   0  0  0  0  0  0  0  0  0  0  0  0
    4.1510    4.6700   16.1510 C   0  0  0  0  0  0  0  0  0  0  0  0
    4.8270    5.5250   17.0430 C   0  0  0  0  0  0  0  0  0  0  0  0
    7.9570    5.1930   15.6830 H   0  0  0  0  0  0  0  0  0  0  0  0
    4.3190    3.3430   14.4590 H   0  0  0  0  0  0  0  0  0  0  0  0
    3.0760    4.5260   16.2420 H   0  0  0  0  0  0  0  0  0  0  0  0
    7.1390    7.9280   17.2720 N   0  0  0  0  0  0  0  0  0  0  0  0
    6.9810    6.6530   17.7410 C   0  0  0  0  0  0  0  0  0  0  0  0
    7.4550    6.3090   18.8160 O   0  0  0  0  0  0  0  0  0  0  0  0
    7.7630    8.5320   17.8000 H   0  0  0  0  0  0  0  0  0  0  0  0
    6.9530    8.1820   16.3110 H   0  0  0  0  0  0  0  0  0  0  0  0
   -1.4690   11.4580   19.8000 N   0  0  0  0  0  0  0  0  0  0  0  0
   -2.5240   12.3040   20.0570 C   0  0  0  0  0  0  0  0  0  0  0  0
   -3.0200   13.0260   19.2000 O   0  0  0  0  0  0  0  0  0  0  0  0
   -0.9690   11.0160   20.5580 H   0  0  0  0  0  0  0  0  0  0  0  0
   -3.0390   12.3430   21.4580 C   0  0  0  0  0  0  0  0  0  0  0  0
   -4.3410   12.7550   21.7800 C   0  0  0  0  0  0  0  0  0  0  0  0
   -4.7630   12.7630   23.1140 C   0  0  0  0  0  0  0  0  0  0  0  0
   -3.8860   12.3740   24.1200 C   0  0  0  0  0  0  0  0  0  0  0  0
   -4.2960   12.3820   25.3950 F   0  0  0  0  0  0  0  0  0  0  0  0
   -2.5870   11.9810   23.8210 C   0  0  0  0  0  0  0  0  0  0  0  0
   -2.1620   11.9680   22.4900 C   0  0  0  0  0  0  0  0  0  0  0  0
   -5.0370   13.0970   21.0190 H   0  0  0  0  0  0  0  0  0  0  0  0
   -5.7660   13.0800   23.3760 H   0  0  0  0  0  0  0  0  0  0  0  0
   -1.9130   11.6910   24.6220 H   0  0  0  0  0  0  0  0  0  0  0  0
   -1.1440   11.6640   22.2570 H   0  0  0  0  0  0  0  0  0  0  0  0
  1 10  1  1  0  0  0
  2  3  1  0  0  0  0
  2 11  1  0  0  0  0
  2  1  1  0  0  0  0
  3 13  1  6  0  0  0
  3 42  1  0  0  0  0
  4  3  1  0  0  0  0
  4  9  1  0  0  0  0
  5  4  2  0  0  0  0
  6  5  1  0  0  0  0
  6  7  2  0  0  0  0
  7  8  1  0  0  0  0
  8  9  2  0  0  0  0
  8 17  1  0  0  0  0
  9  1  1  0  0  0  0
 12  2  1  0  0  0  0
 14  5  1  0  0  0  0
 15  6  1  0  0  0  0
 16  7  1  0  0  0  0
 18 24  1  0  0  0  0
 18 19  1  0  0  0  0
 19 20  2  0  0  0  0
 21 19  1  0  0  0  0
 21  1  1  0  0  0  0
 22 18  1  0  0  0  0
 23 21  1  0  0  0  0
 24 26  1  0  0  0  0
 24 25  1  0  0  0  0
 27 33  1  0  0  0  0
 27 38  1  0  0  0  0
 28 27  2  0  0  0  0
 29 31  2  0  0  0  0
 29 28  1  0  0  0  0
 30 29  1  0  0  0  0
 31 32  1  0  0  0  0
 32 36  1  0  0  0  0
 32 33  2  0  0  0  0
 33 24  1  0  0  0  0
 34 28  1  0  0  0  0
 35 31  1  0  0  0  0
 37 38  1  0  0  0  0
 37 40  1  0  0  0  0
 38 39  2  0  0  0  0
 41 37  1  0  0  0  0
 42 43  1  0  0  0  0
 42 45  1  0  0  0  0
 43 46  1  0  0  0  0
 44 43  2  0  0  0  0
 46 47  2  0  0  0  0
 46 52  1  0  0  0  0
 47 48  1  0  0  0  0
 48 54  1  0  0  0  0
 48 49  2  0  0  0  0
 49 50  1  0  0  0  0
 51 49  1  0  0  0  0
 51 55  1  0  0  0  0
 52 51  2  0  0  0  0
 53 47  1  0  0  0  0
 56 52  1  0  0  0  0
M  END
>  <MODEL>
8

>  <REMARK>
 VINA RESULT:    -9.275      1.490      1.789
 INTER + INTRA:         -10.603
 INTER:                  -9.484
 INTRA:                  -1.118
 UNBOUND:                 1.925
  Name = 
  6 active torsions:
  status: ('A' for Active; 'I' for Inactive)
    1  A    between atoms: C_2  and  C_4
    2  A    between atoms: C_10  and  C_11
    3  A    between atoms: C_11  and  N_12
    4  A    between atoms: N_15  and  C_16
    5  A    between atoms: C_18  and  N_19
    6  A    between atoms: C_20  and  C_22
                            x       y       z     vdW  Elec       q    Type
                         _______ _______ _______ _____ _____    ______ ____

>  <TORSDO>
F 6

$$$$
=
 OpenBabel07192307433D

 56 59  0  0  1  0  0  0  0  0999 V2000
    0.7270   10.1670   19.8650 C   0  0  2  0  0  0  0  0  0  0  0  0
   -0.7960   10.1290   19.6280 C   0  0  0  0  0  0  0  0  0  0  0  0
   -1.2480   11.5970   19.4880 C   0  0  2  0  0  0  0  0  0  0  0  0
   -0.0130   12.2200   18.8970 C   0  0  0  0  0  0  0  0  0  0  0  0
    0.0980   13.4450   18.2550 C   0  0  0  0  0  0  0  0  0  0  0  0
    1.3600   13.8500   17.8120 C   0  0  0  0  0  0  0  0  0  0  0  0
    2.4870   13.0380   18.0250 C   0  0  0  0  0  0  0  0  0  0  0  0
    2.3680   11.8120   18.6810 C   0  0  0  0  0  0  0  0  0  0  0  0
    1.1090   11.4070   19.1050 C   0  0  0  0  0  0  0  0  0  0  0  0
    0.9440   10.3090   20.9300 H   0  0  0  0  0  0  0  0  0  0  0  0
   -1.3190    9.5820   20.4180 H   0  0  0  0  0  0  0  0  0  0  0  0
   -1.0060    9.6050   18.6850 H   0  0  0  0  0  0  0  0  0  0  0  0
   -2.1080   11.6770   18.8130 H   0  0  0  0  0  0  0  0  0  0  0  0
   -0.7730   14.0760   18.0990 H   0  0  0  0  0  0  0  0  0  0  0  0
    1.4730   14.8040   17.3020 H   0  0  0  0  0  0  0  0  0  0  0  0
    3.4640   13.3740   17.6790 H   0  0  0  0  0  0  0  0  0  0  0  0
    3.2430   11.1920   18.8600 H   0  0  0  0  0  0  0  0  0  0  0  0
    2.2080    6.8850   19.5770 N   0  0  0  0  0  0  0  0  0  0  0  0
    1.7040    7.9680   20.2490 C   0  0  0  0  0  0  0  0  0  0  0  0
    1.5470    8.0220   21.4580 O   0  0  0  0  0  0  0  0  0  0  0  0
    1.3960    8.9820   19.3850 N   0  0  0  0  0  0  0  0  0  0  0  0
    2.8280    7.1560   18.8170 H   0  0  0  0  0  0  0  0  0  0  0  0
    1.2150    8.6970   18.4330 H   0  0  0  0  0  0  0  0  0  0  0  0
    2.7130    5.7710   20.3390 C   0  0  0  0  0  0  0  0  0  0  0  0
    3.5600    6.1120   20.9460 H   0  0  0  0  0  0  0  0  0  0  0  0
    1.9440    5.4440   21.0480 H   0  0  0  0  0  0  0  0  0  0  0  0
    2.6970    3.2930   19.6590 C   0  0  0  0  0  0  0  0  0  0  0  0
    3.0920    2.2780   18.7760 C   0  0  0  0  0  0  0  0  0  0  0  0
    3.9030    2.5830   17.6910 C   0  0  0  0  0  0  0  0  0  0  0  0
    4.2730    1.6100   16.8490 F   0  0  0  0  0  0  0  0  0  0  0  0
    4.3450    3.8770   17.4730 C   0  0  0  0  0  0  0  0  0  0  0  0
    3.9650    4.8930   18.3500 C   0  0  0  0  0  0  0  0  0  0  0  0
    3.1260    4.6230   19.4480 C   0  0  0  0  0  0  0  0  0  0  0  0
    2.8040    1.2480   18.9330 H   0  0  0  0  0  0  0  0  0  0  0  0
    4.9880    4.0900   16.6290 H   0  0  0  0  0  0  0  0  0  0  0  0
    4.3300    5.9040   18.1780 H   0  0  0  0  0  0  0  0  0  0  0  0
    0.5070    2.9490   20.6590 N   0  0  0  0  0  0  0  0  0  0  0  0
    1.8630    2.9250   20.8360 C   0  0  0  0  0  0  0  0  0  0  0  0
    2.3570    2.6210   21.9140 O   0  0  0  0  0  0  0  0  0  0  0  0
   -0.0610    2.8200   21.4910 H   0  0  0  0  0  0  0  0  0  0  0  0
    0.0700    3.3960   19.8630 H   0  0  0  0  0  0  0  0  0  0  0  0
   -1.5690   12.2110   20.7610 N   0  0  0  0  0  0  0  0  0  0  0  0
   -2.7760   12.8440   20.9550 C   0  0  0  0  0  0  0  0  0  0  0  0
   -3.6330   12.9210   20.0810 O   0  0  0  0  0  0  0  0  0  0  0  0
   -0.8190   12.3200   21.4290 H   0  0  0  0  0  0  0  0  0  0  0  0
   -3.0040   13.4810   22.2850 C   0  0  0  0  0  0  0  0  0  0  0  0
   -4.2800   13.6350   22.8480 C   0  0  0  0  0  0  0  0  0  0  0  0
   -4.4250   14.2380   24.1020 C   0  0  0  0  0  0  0  0  0  0  0  0
   -3.3020   14.6930   24.7850 C   0  0  0  0  0  0  0  0  0  0  0  0
   -3.4460   15.2670   25.9860 F   0  0  0  0  0  0  0  0  0  0  0  0
   -2.0330   14.5650   24.2350 C   0  0  0  0  0  0  0  0  0  0  0  0
   -1.8840   13.9620   22.9840 C   0  0  0  0  0  0  0  0  0  0  0  0
   -5.1780   13.3210   22.3230 H   0  0  0  0  0  0  0  0  0  0  0  0
   -5.4050   14.3640   24.5470 H   0  0  0  0  0  0  0  0  0  0  0  0
   -1.1690   14.9370   24.7790 H   0  0  0  0  0  0  0  0  0  0  0  0
   -0.8890   13.8660   22.5520 H   0  0  0  0  0  0  0  0  0  0  0  0
  1 10  1  1  0  0  0
  2  1  1  0  0  0  0
  2 11  1  0  0  0  0
  3 13  1  6  0  0  0
  3  2  1  0  0  0  0
  3 42  1  0  0  0  0
  4  9  1  0  0  0  0
  4  3  1  0  0  0  0
  5  4  2  0  0  0  0
  6  7  2  0  0  0  0
  6  5  1  0  0  0  0
  7  8  1  0  0  0  0
  8 17  1  0  0  0  0
  8  9  2  0  0  0  0
  9  1  1  0  0  0  0
 12  2  1  0  0  0  0
 14  5  1  0  0  0  0
 15  6  1  0  0  0  0
 16  7  1  0  0  0  0
 18 19  1  0  0  0  0
 18 24  1  0  0  0  0
 19 20  2  0  0  0  0
 21  1  1  0  0  0  0
 21 19  1  0  0  0  0
 22 18  1  0  0  0  0
 23 21  1  0  0  0  0
 24 25  1  0  0  0  0
 24 26  1  0  0  0  0
 27 38  1  0  0  0  0
 28 34  1  0  0  0  0
 28 27  2  0  0  0  0
 29 28  1  0  0  0  0
 30 29  1  0  0  0  0
 31 29  2  0  0  0  0
 31 32  1  0  0  0  0
 32 33  2  0  0  0  0
 33 27  1  0  0  0  0
 33 24  1  0  0  0  0
 35 31  1  0  0  0  0
 36 32  1  0  0  0  0
 37 38  1  0  0  0  0
 37 40  1  0  0  0  0
 38 39  2  0  0  0  0
 41 37  1  0  0  0  0
 42 43  1  0  0  0  0
 42 45  1  0  0  0  0
 43 46  1  0  0  0  0
 44 43  2  0  0  0  0
 46 47  2  0  0  0  0
 46 52  1  0  0  0  0
 47 48  1  0  0  0  0
 48 54  1  0  0  0  0
 48 49  2  0  0  0  0
 49 50  1  0  0  0  0
 51 55  1  0  0  0  0
 51 49  1  0  0  0  0
 52 51  2  0  0  0  0
 53 47  1  0  0  0  0
 56 52  1  0  0  0  0
M  END
>  <MODEL>
9

>  <REMARK>
 VINA RESULT:    -9.224      1.961      2.318
 INTER + INTRA:         -10.534
 INTER:                  -9.509
 INTRA:                  -1.025
 UNBOUND:                 1.925
  Name = 
  6 active torsions:
  status: ('A' for Active; 'I' for Inactive)
    1  A    between atoms: C_2  and  C_4
    2  A    between atoms: C_10  and  C_11
    3  A    between atoms: C_11  and  N_12
    4  A    between atoms: N_15  and  C_16
    5  A    between atoms: C_18  and  N_19
    6  A    between atoms: C_20  and  C_22
                            x       y       z     vdW  Elec       q    Type
                         _______ _______ _______ _____ _____    ______ ____

>  <TORSDO>
F 6

$$$$
=
 OpenBabel07192307433D

 56 59  0  0  1  0  0  0  0  0999 V2000
    1.2100   10.3340   18.7780 C   0  0  2  0  0  0  0  0  0  0  0  0
   -0.2500   10.2700   18.2880 C   0  0  0  0  0  0  0  0  0  0  0  0
   -0.8650   11.6530   18.5820 C   0  0  2  0  0  0  0  0  0  0  0  0
    0.3460   12.5360   18.4560 C   0  0  0  0  0  0  0  0  0  0  0  0
    0.3820   13.9130   18.2980 C   0  0  0  0  0  0  0  0  0  0  0  0
    1.6280   14.5430   18.2410 C   0  0  0  0  0  0  0  0  0  0  0  0
    2.8130   13.7950   18.3520 C   0  0  0  0  0  0  0  0  0  0  0  0
    2.7680   12.4100   18.5220 C   0  0  0  0  0  0  0  0  0  0  0  0
    1.5270   11.7880   18.5620 C   0  0  0  0  0  0  0  0  0  0  0  0
    1.2640   10.1030   19.8490 H   0  0  0  0  0  0  0  0  0  0  0  0
   -0.7980    9.4400   18.7430 H   0  0  0  0  0  0  0  0  0  0  0  0
   -0.2630   10.1020   17.2010 H   0  0  0  0  0  0  0  0  0  0  0  0
   -1.6310   11.9040   17.8380 H   0  0  0  0  0  0  0  0  0  0  0  0
   -0.5350   14.4920   18.2210 H   0  0  0  0  0  0  0  0  0  0  0  0
    1.6840   15.6210   18.1130 H   0  0  0  0  0  0  0  0  0  0  0  0
    3.7750   14.3030   18.3130 H   0  0  0  0  0  0  0  0  0  0  0  0
    3.6840   11.8340   18.6250 H   0  0  0  0  0  0  0  0  0  0  0  0
    2.9260    7.4380   17.4680 N   0  0  0  0  0  0  0  0  0  0  0  0
    2.1470    8.1230   18.3640 C   0  0  0  0  0  0  0  0  0  0  0  0
    1.5800    7.6160   19.3190 O   0  0  0  0  0  0  0  0  0  0  0  0
    2.0850    9.4510   18.0450 N   0  0  0  0  0  0  0  0  0  0  0  0
    3.7490    7.9670   17.1880 H   0  0  0  0  0  0  0  0  0  0  0  0
    2.2630    9.6700   17.0750 H   0  0  0  0  0  0  0  0  0  0  0  0
    3.2150    6.0480   17.7220 C   0  0  0  0  0  0  0  0  0  0  0  0
    2.6070    5.7100   18.5690 H   0  0  0  0  0  0  0  0  0  0  0  0
    2.8930    5.4530   16.8590 H   0  0  0  0  0  0  0  0  0  0  0  0
    5.6650    5.8320   16.9800 C   0  0  0  0  0  0  0  0  0  0  0  0
    7.0170    5.6450   17.3070 C   0  0  0  0  0  0  0  0  0  0  0  0
    7.3870    5.4540   18.6310 C   0  0  0  0  0  0  0  0  0  0  0  0
    8.6800    5.2810   18.9360 F   0  0  0  0  0  0  0  0  0  0  0  0
    6.4390    5.4280   19.6400 C   0  0  0  0  0  0  0  0  0  0  0  0
    5.0920    5.6040   19.3260 C   0  0  0  0  0  0  0  0  0  0  0  0
    4.6830    5.8220   17.9970 C   0  0  0  0  0  0  0  0  0  0  0  0
    7.7830    5.6170   16.5460 H   0  0  0  0  0  0  0  0  0  0  0  0
    6.7490    5.2630   20.6640 H   0  0  0  0  0  0  0  0  0  0  0  0
    4.3530    5.5680   20.1250 H   0  0  0  0  0  0  0  0  0  0  0  0
    5.4060    4.8780   14.7590 N   0  0  0  0  0  0  0  0  0  0  0  0
    5.2970    5.9910   15.5480 C   0  0  0  0  0  0  0  0  0  0  0  0
    4.9210    7.0610   15.0870 O   0  0  0  0  0  0  0  0  0  0  0  0
    5.2750    5.0150   13.7600 H   0  0  0  0  0  0  0  0  0  0  0  0
    5.9080    4.0510   15.0510 H   0  0  0  0  0  0  0  0  0  0  0  0
   -1.4290   11.7470   19.9130 N   0  0  0  0  0  0  0  0  0  0  0  0
   -2.6820   12.2810   20.1130 C   0  0  0  0  0  0  0  0  0  0  0  0
   -3.3800   12.6980   19.1950 O   0  0  0  0  0  0  0  0  0  0  0  0
   -0.8100   11.5830   20.6950 H   0  0  0  0  0  0  0  0  0  0  0  0
   -3.1650   12.3740   21.5220 C   0  0  0  0  0  0  0  0  0  0  0  0
   -4.4710   12.7660   21.8560 C   0  0  0  0  0  0  0  0  0  0  0  0
   -4.8620   12.8280   23.1980 C   0  0  0  0  0  0  0  0  0  0  0  0
   -3.9510   12.5110   24.1990 C   0  0  0  0  0  0  0  0  0  0  0  0
   -4.3320   12.5700   25.4820 F   0  0  0  0  0  0  0  0  0  0  0  0
   -2.6500   12.1390   23.8880 C   0  0  0  0  0  0  0  0  0  0  0  0
   -2.2550   12.0730   22.5490 C   0  0  0  0  0  0  0  0  0  0  0  0
   -5.1930   13.0530   21.0970 H   0  0  0  0  0  0  0  0  0  0  0  0
   -5.8670   13.1300   23.4690 H   0  0  0  0  0  0  0  0  0  0  0  0
   -1.9490   11.9060   24.6860 H   0  0  0  0  0  0  0  0  0  0  0  0
   -1.2340   11.7860   22.3070 H   0  0  0  0  0  0  0  0  0  0  0  0
  1 10  1  1  0  0  0
  2  3  1  0  0  0  0
  2 11  1  0  0  0  0
  2  1  1  0  0  0  0
  3 13  1  6  0  0  0
  3 42  1  0  0  0  0
  4  9  1  0  0  0  0
  4  3  1  0  0  0  0
  5  4  2  0  0  0  0
  6  5  1  0  0  0  0
  6  7  2  0  0  0  0
  7  8  1  0  0  0  0
  8  9  2  0  0  0  0
  8 17  1  0  0  0  0
  9  1  1  0  0  0  0
 12  2  1  0  0  0  0
 14  5  1  0  0  0  0
 15  6  1  0  0  0  0
 16  7  1  0  0  0  0
 18 24  1  0  0  0  0
 18 19  1  0  0  0  0
 19 20  2  0  0  0  0
 21 19  1  0  0  0  0
 21  1  1  0  0  0  0
 22 18  1  0  0  0  0
 23 21  1  0  0  0  0
 24 33  1  0  0  0  0
 24 25  1  0  0  0  0
 26 24  1  0  0  0  0
 27 28  2  0  0  0  0
 27 33  1  0  0  0  0
 28 29  1  0  0  0  0
 29 30  1  0  0  0  0
 29 31  2  0  0  0  0
 31 35  1  0  0  0  0
 32 31  1  0  0  0  0
 32 36  1  0  0  0  0
 33 32  2  0  0  0  0
 34 28  1  0  0  0  0
 37 41  1  0  0  0  0
 37 38  1  0  0  0  0
 38 27  1  0  0  0  0
 39 38  2  0  0  0  0
 40 37  1  0  0  0  0
 42 43  1  0  0  0  0
 42 45  1  0  0  0  0
 43 46  1  0  0  0  0
 44 43  2  0  0  0  0
 46 47  2  0  0  0  0
 46 52  1  0  0  0  0
 47 48  1  0  0  0  0
 48 54  1  0  0  0  0
 48 49  2  0  0  0  0
 49 50  1  0  0  0  0
 51 49  1  0  0  0  0
 51 55  1  0  0  0  0
 52 51  2  0  0  0  0
 53 47  1  0  0  0  0
 56 52  1  0  0  0  0
M  END
>  <MODEL>
10

>  <REMARK>
 VINA RESULT:    -9.215      1.906      2.181
 INTER + INTRA:         -10.522
 INTER:                  -9.361
 INTRA:                  -1.161
 UNBOUND:                 1.925
  Name = 
  6 active torsions:
  status: ('A' for Active; 'I' for Inactive)
    1  A    between atoms: C_2  and  C_4
    2  A    between atoms: C_10  and  C_11
    3  A    between atoms: C_11  and  N_12
    4  A    between atoms: N_15  and  C_16
    5  A    between atoms: C_18  and  N_19
    6  A    between atoms: C_20  and  C_22
                            x       y       z     vdW  Elec       q    Type
                         _______ _______ _______ _____ _____    ______ ____

>  <TORSDO>
F 6

$$$$
=
 OpenBabel07192307433D

 56 59  0  0  1  0  0  0  0  0999 V2000
    2.2740    5.3990   18.1420 C   0  0  2  0  0  0  0  0  0  0  0  0
    3.3190    6.1720   18.9720 C   0  0  0  0  0  0  0  0  0  0  0  0
    2.9460    5.9470   20.4510 C   0  0  2  0  0  0  0  0  0  0  0  0
    2.3230    4.5800   20.3840 C   0  0  0  0  0  0  0  0  0  0  0  0
    2.0790    3.7040   21.4310 C   0  0  0  0  0  0  0  0  0  0  0  0
    1.4500    2.4890   21.1470 C   0  0  0  0  0  0  0  0  0  0  0  0
    1.0650    2.1730   19.8330 C   0  0  0  0  0  0  0  0  0  0  0  0
    1.3050    3.0650   18.7860 C   0  0  0  0  0  0  0  0  0  0  0  0
    1.9450    4.2640   19.0710 C   0  0  0  0  0  0  0  0  0  0  0  0
    1.3800    6.0140   17.9840 H   0  0  0  0  0  0  0  0  0  0  0  0
    3.3680    7.2270   18.6870 H   0  0  0  0  0  0  0  0  0  0  0  0
    4.3160    5.7470   18.7910 H   0  0  0  0  0  0  0  0  0  0  0  0
    3.8420    5.9560   21.0840 H   0  0  0  0  0  0  0  0  0  0  0  0
    2.3690    3.9530   22.4490 H   0  0  0  0  0  0  0  0  0  0  0  0
    1.2510    1.7820   21.9490 H   0  0  0  0  0  0  0  0  0  0  0  0
    0.5690    1.2240   19.6310 H   0  0  0  0  0  0  0  0  0  0  0  0
    0.9930    2.8270   17.7720 H   0  0  0  0  0  0  0  0  0  0  0  0
    4.1870    3.7860   15.5360 N   0  0  0  0  0  0  0  0  0  0  0  0
    3.9440    4.2240   16.8110 C   0  0  0  0  0  0  0  0  0  0  0  0
    4.6600    3.9900   17.7730 O   0  0  0  0  0  0  0  0  0  0  0  0
    2.7900    4.9540   16.8690 N   0  0  0  0  0  0  0  0  0  0  0  0
    3.9540    4.4880   14.8360 H   0  0  0  0  0  0  0  0  0  0  0  0
    2.1220    4.7640   16.1360 H   0  0  0  0  0  0  0  0  0  0  0  0
    5.4310    3.1120   15.2590 C   0  0  0  0  0  0  0  0  0  0  0  0
    5.9090    2.8470   16.2090 H   0  0  0  0  0  0  0  0  0  0  0  0
    5.2190    2.1650   14.7500 H   0  0  0  0  0  0  0  0  0  0  0  0
    6.3610    3.9230   13.0050 C   0  0  0  0  0  0  0  0  0  0  0  0
    7.2230    4.7610   12.2830 C   0  0  0  0  0  0  0  0  0  0  0  0
    8.0660    5.6330   12.9590 C   0  0  0  0  0  0  0  0  0  0  0  0
    8.8830    6.4340   12.2630 F   0  0  0  0  0  0  0  0  0  0  0  0
    8.0840    5.6780   14.3430 C   0  0  0  0  0  0  0  0  0  0  0  0
    7.2370    4.8430   15.0710 C   0  0  0  0  0  0  0  0  0  0  0  0
    6.3540    3.9630   14.4180 C   0  0  0  0  0  0  0  0  0  0  0  0
    7.2710    4.7280   11.2040 H   0  0  0  0  0  0  0  0  0  0  0  0
    8.7590    6.3550   14.8490 H   0  0  0  0  0  0  0  0  0  0  0  0
    7.2690    4.8760   16.1590 H   0  0  0  0  0  0  0  0  0  0  0  0
    6.0930    1.8100   11.8320 N   0  0  0  0  0  0  0  0  0  0  0  0
    5.5020    2.9700   12.2520 C   0  0  0  0  0  0  0  0  0  0  0  0
    4.3250    3.2070   12.0090 O   0  0  0  0  0  0  0  0  0  0  0  0
    5.5440    1.2190   11.2140 H   0  0  0  0  0  0  0  0  0  0  0  0
    7.0960    1.6810   11.8270 H   0  0  0  0  0  0  0  0  0  0  0  0
    1.9910    6.9190   20.9450 N   0  0  0  0  0  0  0  0  0  0  0  0
    1.7660    8.0950   20.2670 C   0  0  0  0  0  0  0  0  0  0  0  0
    2.3470    8.3830   19.2260 O   0  0  0  0  0  0  0  0  0  0  0  0
    1.6390    6.7910   21.8830 H   0  0  0  0  0  0  0  0  0  0  0  0
    0.7940    9.0530   20.8710 C   0  0  0  0  0  0  0  0  0  0  0  0
    0.1670   10.0690   20.1330 C   0  0  0  0  0  0  0  0  0  0  0  0
   -0.7400   10.9320   20.7600 C   0  0  0  0  0  0  0  0  0  0  0  0
   -1.0080   10.7870   22.1160 C   0  0  0  0  0  0  0  0  0  0  0  0
   -1.8790   11.6140   22.7100 F   0  0  0  0  0  0  0  0  0  0  0  0
   -0.3830    9.7990   22.8660 C   0  0  0  0  0  0  0  0  0  0  0  0
    0.5210    8.9330   22.2440 C   0  0  0  0  0  0  0  0  0  0  0  0
    0.3830   10.2280   19.0810 H   0  0  0  0  0  0  0  0  0  0  0  0
   -1.2300   11.7210   20.2010 H   0  0  0  0  0  0  0  0  0  0  0  0
   -0.5970    9.7090   23.9270 H   0  0  0  0  0  0  0  0  0  0  0  0
    1.0140    8.1620   22.8330 H   0  0  0  0  0  0  0  0  0  0  0  0
  1 10  1  6  0  0  0
  1  2  1  0  0  0  0
  1  9  1  0  0  0  0
  2  3  1  0  0  0  0
  3 42  1  0  0  0  0
  3 13  1  1  0  0  0
  4  3  1  0  0  0  0
  4  5  1  0  0  0  0
  5 14  1  0  0  0  0
  6  5  2  0  0  0  0
  6 15  1  0  0  0  0
  7  6  1  0  0  0  0
  8  9  1  0  0  0  0
  8  7  2  0  0  0  0
  9  4  2  0  0  0  0
 11  2  1  0  0  0  0
 12  2  1  0  0  0  0
 16  7  1  0  0  0  0
 17  8  1  0  0  0  0
 18 19  1  0  0  0  0
 19 21  1  0  0  0  0
 19 20  2  0  0  0  0
 21  1  1  0  0  0  0
 22 18  1  0  0  0  0
 23 21  1  0  0  0  0
 24 18  1  0  0  0  0
 24 25  1  0  0  0  0
 26 24  1  0  0  0  0
 27 33  1  0  0  0  0
 28 29  1  0  0  0  0
 28 27  2  0  0  0  0
 29 31  2  0  0  0  0
 30 29  1  0  0  0  0
 31 35  1  0  0  0  0
 31 32  1  0  0  0  0
 32 36  1  0  0  0  0
 33 32  2  0  0  0  0
 33 24  1  0  0  0  0
 34 28  1  0  0  0  0
 37 38  1  0  0  0  0
 38 27  1  0  0  0  0
 39 38  2  0  0  0  0
 40 37  1  0  0  0  0
 41 37  1  0  0  0  0
 42 45  1  0  0  0  0
 43 46  1  0  0  0  0
 43 42  1  0  0  0  0
 44 43  2  0  0  0  0
 46 52  1  0  0  0  0
 47 48  1  0  0  0  0
 47 46  2  0  0  0  0
 48 49  2  0  0  0  0
 49 50  1  0  0  0  0
 49 51  1  0  0  0  0
 51 55  1  0  0  0  0
 52 56  1  0  0  0  0
 52 51  2  0  0  0  0
 53 47  1  0  0  0  0
 54 48  1  0  0  0  0
M  END
>  <MODEL>
11

>  <REMARK>
 VINA RESULT:    -8.389      3.323      6.399
 INTER + INTRA:          -9.406
 INTER:                 -10.273
 INTRA:                   0.867
 UNBOUND:                 1.925
  Name = 
  6 active torsions:
  status: ('A' for Active; 'I' for Inactive)
    1  A    between atoms: C_2  and  C_4
    2  A    between atoms: C_10  and  C_11
    3  A    between atoms: C_11  and  N_12
    4  A    between atoms: N_15  and  C_16
    5  A    between atoms: C_18  and  N_19
    6  A    between atoms: C_20  and  C_22
                            x       y       z     vdW  Elec       q    Type
                         _______ _______ _______ _____ _____    ______ ____

>  <TORSDO>
F 6

$$$$
=
 OpenBabel07192307433D

 56 59  0  0  1  0  0  0  0  0999 V2000
    0.9260   10.8960   19.7490 C   0  0  2  0  0  0  0  0  0  0  0  0
    1.9240   10.4040   18.6820 C   0  0  0  0  0  0  0  0  0  0  0  0
    1.1450    9.4240   17.7820 C   0  0  2  0  0  0  0  0  0  0  0  0
   -0.2430    9.9950   17.8730 C   0  0  0  0  0  0  0  0  0  0  0  0
   -1.3230    9.7460   17.0380 C   0  0  0  0  0  0  0  0  0  0  0  0
   -2.5440   10.3590   17.3310 C   0  0  0  0  0  0  0  0  0  0  0  0
   -2.6730   11.1980   18.4500 C   0  0  0  0  0  0  0  0  0  0  0  0
   -1.5840   11.4360   19.2920 C   0  0  0  0  0  0  0  0  0  0  0  0
   -0.3690   10.8360   18.9870 C   0  0  0  0  0  0  0  0  0  0  0  0
    0.8880   10.1930   20.5900 H   0  0  0  0  0  0  0  0  0  0  0  0
    2.8210    9.9690   19.1310 H   0  0  0  0  0  0  0  0  0  0  0  0
    2.2550   11.2560   18.0710 H   0  0  0  0  0  0  0  0  0  0  0  0
    1.5290    9.4490   16.7550 H   0  0  0  0  0  0  0  0  0  0  0  0
   -1.2250    9.0890   16.1770 H   0  0  0  0  0  0  0  0  0  0  0  0
   -3.4050   10.1830   16.6890 H   0  0  0  0  0  0  0  0  0  0  0  0
   -3.6340   11.6620   18.6670 H   0  0  0  0  0  0  0  0  0  0  0  0
   -1.6890   12.0720   20.1670 H   0  0  0  0  0  0  0  0  0  0  0  0
    2.1120   14.2930   20.0730 N   0  0  0  0  0  0  0  0  0  0  0  0
    2.0560   13.0420   19.5160 C   0  0  0  0  0  0  0  0  0  0  0  0
    2.6570   12.7060   18.5070 O   0  0  0  0  0  0  0  0  0  0  0  0
    1.2340   12.2200   20.2350 N   0  0  0  0  0  0  0  0  0  0  0  0
    2.1320   14.2620   21.0900 H   0  0  0  0  0  0  0  0  0  0  0  0
    0.5320   12.6890   20.7880 H   0  0  0  0  0  0  0  0  0  0  0  0
    3.0350   15.2560   19.5260 C   0  0  0  0  0  0  0  0  0  0  0  0
    3.1220   15.0880   18.4460 H   0  0  0  0  0  0  0  0  0  0  0  0
    2.6150   16.2610   19.6450 H   0  0  0  0  0  0  0  0  0  0  0  0
    5.5960   15.0580   19.4600 C   0  0  0  0  0  0  0  0  0  0  0  0
    6.8240   15.0150   20.1350 C   0  0  0  0  0  0  0  0  0  0  0  0
    6.8530   15.0890   21.5210 C   0  0  0  0  0  0  0  0  0  0  0  0
    8.0300   15.0520   22.1600 F   0  0  0  0  0  0  0  0  0  0  0  0
    5.6820   15.1880   22.2540 C   0  0  0  0  0  0  0  0  0  0  0  0
    4.4550   15.2230   21.5940 C   0  0  0  0  0  0  0  0  0  0  0  0
    4.3900   15.1720   20.1880 C   0  0  0  0  0  0  0  0  0  0  0  0
    7.7570   14.8970   19.6040 H   0  0  0  0  0  0  0  0  0  0  0  0
    5.7280   15.2290   23.3350 H   0  0  0  0  0  0  0  0  0  0  0  0
    3.5400   15.2860   22.1800 H   0  0  0  0  0  0  0  0  0  0  0  0
    6.7470   14.4690   17.4000 N   0  0  0  0  0  0  0  0  0  0  0  0
    5.5970   14.9340   17.9770 C   0  0  0  0  0  0  0  0  0  0  0  0
    4.6240   15.2360   17.2970 O   0  0  0  0  0  0  0  0  0  0  0  0
    6.7910   14.5020   16.3860 H   0  0  0  0  0  0  0  0  0  0  0  0
    7.6240   14.4170   17.9010 H   0  0  0  0  0  0  0  0  0  0  0  0
    1.1690    8.0630   18.2780 N   0  0  0  0  0  0  0  0  0  0  0  0
    2.3100    7.2980   18.1860 C   0  0  0  0  0  0  0  0  0  0  0  0
    3.3520    7.7160   17.6900 O   0  0  0  0  0  0  0  0  0  0  0  0
    0.2860    7.6390   18.5210 H   0  0  0  0  0  0  0  0  0  0  0  0
    2.2320    5.8950   18.6880 C   0  0  0  0  0  0  0  0  0  0  0  0
    2.0360    4.7920   17.8420 C   0  0  0  0  0  0  0  0  0  0  0  0
    1.9760    3.5010   18.3770 C   0  0  0  0  0  0  0  0  0  0  0  0
    2.1000    3.3140   19.7500 C   0  0  0  0  0  0  0  0  0  0  0  0
    2.0440    2.0750   20.2560 F   0  0  0  0  0  0  0  0  0  0  0  0
    2.2750    4.3950   20.6040 C   0  0  0  0  0  0  0  0  0  0  0  0
    2.3380    5.6870   20.0730 C   0  0  0  0  0  0  0  0  0  0  0  0
    1.9020    4.9110   16.7710 H   0  0  0  0  0  0  0  0  0  0  0  0
    1.8250    2.6410   17.7350 H   0  0  0  0  0  0  0  0  0  0  0  0
    2.3580    4.2300   21.6740 H   0  0  0  0  0  0  0  0  0  0  0  0
    2.4720    6.5330   20.7440 H   0  0  0  0  0  0  0  0  0  0  0  0
  1 21  1  0  0  0  0
  1 10  1  1  0  0  0
  2 11  1  0  0  0  0
  2  1  1  0  0  0  0
  3 13  1  6  0  0  0
  3  4  1  0  0  0  0
  3 42  1  0  0  0  0
  3  2  1  0  0  0  0
  4  9  1  0  0  0  0
  5  6  1  0  0  0  0
  5  4  2  0  0  0  0
  6  7  2  0  0  0  0
  7 16  1  0  0  0  0
  7  8  1  0  0  0  0
  8 17  1  0  0  0  0
  9  8  2  0  0  0  0
  9  1  1  0  0  0  0
 12  2  1  0  0  0  0
 14  5  1  0  0  0  0
 15  6  1  0  0  0  0
 18 22  1  0  0  0  0
 19 18  1  0  0  0  0
 19 21  1  0  0  0  0
 20 19  2  0  0  0  0
 21 23  1  0  0  0  0
 24 26  1  0  0  0  0
 24 18  1  0  0  0  0
 24 33  1  0  0  0  0
 25 24  1  0  0  0  0
 27 28  2  0  0  0  0
 27 33  1  0  0  0  0
 28 29  1  0  0  0  0
 29 30  1  0  0  0  0
 29 31  2  0  0  0  0
 31 35  1  0  0  0  0
 32 36  1  0  0  0  0
 32 31  1  0  0  0  0
 33 32  2  0  0  0  0
 34 28  1  0  0  0  0
 37 41  1  0  0  0  0
 37 38  1  0  0  0  0
 38 27  1  0  0  0  0
 39 38  2  0  0  0  0
 40 37  1  0  0  0  0
 42 45  1  0  0  0  0
 43 42  1  0  0  0  0
 43 46  1  0  0  0  0
 44 43  2  0  0  0  0
 46 52  1  0  0  0  0
 47 48  1  0  0  0  0
 47 46  2  0  0  0  0
 48 49  2  0  0  0  0
 49 50  1  0  0  0  0
 49 51  1  0  0  0  0
 51 55  1  0  0  0  0
 52 51  2  0  0  0  0
 52 56  1  0  0  0  0
 53 47  1  0  0  0  0
 54 48  1  0  0  0  0
M  END
>  <MODEL>
12

>  <REMARK>
 VINA RESULT:    -8.232      4.270      9.000
 INTER + INTRA:          -9.194
 INTER:                  -9.783
 INTRA:                   0.588
 UNBOUND:                 1.925
  Name = 
  6 active torsions:
  status: ('A' for Active; 'I' for Inactive)
    1  A    between atoms: C_2  and  C_4
    2  A    between atoms: C_10  and  C_11
    3  A    between atoms: C_11  and  N_12
    4  A    between atoms: N_15  and  C_16
    5  A    between atoms: C_18  and  N_19
    6  A    between atoms: C_20  and  C_22
                            x       y       z     vdW  Elec       q    Type
                         _______ _______ _______ _____ _____    ______ ____

>  <TORSDO>
F 6

$$$$
=
 OpenBabel07192307433D

 56 59  0  0  1  0  0  0  0  0999 V2000
    1.0450   11.4430   19.3970 C   0  0  2  0  0  0  0  0  0  0  0  0
    1.9460   10.7690   18.3430 C   0  0  0  0  0  0  0  0  0  0  0  0
    1.1350    9.5880   17.7740 C   0  0  2  0  0  0  0  0  0  0  0  0
   -0.2680   10.1130   17.9120 C   0  0  0  0  0  0  0  0  0  0  0  0
   -1.4160    9.6470   17.2890 C   0  0  0  0  0  0  0  0  0  0  0  0
   -2.6330   10.2620   17.5940 C   0  0  0  0  0  0  0  0  0  0  0  0
   -2.6880   11.3190   18.5180 C   0  0  0  0  0  0  0  0  0  0  0  0
   -1.5290   11.7750   19.1490 C   0  0  0  0  0  0  0  0  0  0  0  0
   -0.3200   11.1710   18.8310 C   0  0  0  0  0  0  0  0  0  0  0  0
    1.1470   10.9390   20.3660 H   0  0  0  0  0  0  0  0  0  0  0  0
    2.9140   10.4770   18.7600 H   0  0  0  0  0  0  0  0  0  0  0  0
    2.1520   11.4800   17.5300 H   0  0  0  0  0  0  0  0  0  0  0  0
    1.4000    9.4040   16.7250 H   0  0  0  0  0  0  0  0  0  0  0  0
   -1.3730    8.8230   16.5810 H   0  0  0  0  0  0  0  0  0  0  0  0
   -3.5470    9.9190   17.1150 H   0  0  0  0  0  0  0  0  0  0  0  0
   -3.6470   11.7820   18.7480 H   0  0  0  0  0  0  0  0  0  0  0  0
   -1.5750   12.5820   19.8770 H   0  0  0  0  0  0  0  0  0  0  0  0
    2.4860   14.6250   20.3220 N   0  0  0  0  0  0  0  0  0  0  0  0
    2.2830   13.2730   20.4260 C   0  0  0  0  0  0  0  0  0  0  0  0
    2.8850   12.5390   21.1940 O   0  0  0  0  0  0  0  0  0  0  0  0
    1.3220   12.8520   19.5500 N   0  0  0  0  0  0  0  0  0  0  0  0
    1.6170   15.1350   20.1850 H   0  0  0  0  0  0  0  0  0  0  0  0
    1.1820   13.4440   18.7450 H   0  0  0  0  0  0  0  0  0  0  0  0
    3.3690   15.2670   21.2620 C   0  0  0  0  0  0  0  0  0  0  0  0
    3.1420   16.3390   21.2860 H   0  0  0  0  0  0  0  0  0  0  0  0
    3.1570   14.8890   22.2690 H   0  0  0  0  0  0  0  0  0  0  0  0
    5.7780   14.5940   21.8540 C   0  0  0  0  0  0  0  0  0  0  0  0
    7.1040   14.3720   21.4570 C   0  0  0  0  0  0  0  0  0  0  0  0
    7.4750   14.5870   20.1370 C   0  0  0  0  0  0  0  0  0  0  0  0
    8.7430   14.3680   19.7640 F   0  0  0  0  0  0  0  0  0  0  0  0
    6.5570   15.0350   19.2020 C   0  0  0  0  0  0  0  0  0  0  0  0
    5.2370   15.2670   19.5870 C   0  0  0  0  0  0  0  0  0  0  0  0
    4.8210   15.0380   20.9130 C   0  0  0  0  0  0  0  0  0  0  0  0
    7.8610   14.0620   22.1630 H   0  0  0  0  0  0  0  0  0  0  0  0
    6.8720   15.2100   18.1810 H   0  0  0  0  0  0  0  0  0  0  0  0
    4.5270   15.6330   18.8480 H   0  0  0  0  0  0  0  0  0  0  0  0
    5.7640   13.1930   23.8420 N   0  0  0  0  0  0  0  0  0  0  0  0
    5.4220   14.3950   23.2850 C   0  0  0  0  0  0  0  0  0  0  0  0
    4.8470   15.2560   23.9390 O   0  0  0  0  0  0  0  0  0  0  0  0
    5.4130   13.0100   24.7770 H   0  0  0  0  0  0  0  0  0  0  0  0
    6.0390   12.3950   23.2850 H   0  0  0  0  0  0  0  0  0  0  0  0
    1.3020    8.3690   18.5400 N   0  0  0  0  0  0  0  0  0  0  0  0
    2.3400    7.5060   18.2750 C   0  0  0  0  0  0  0  0  0  0  0  0
    3.1690    7.7140   17.3950 O   0  0  0  0  0  0  0  0  0  0  0  0
    0.5390    8.0870   19.1390 H   0  0  0  0  0  0  0  0  0  0  0  0
    2.4100    6.2560   19.0880 C   0  0  0  0  0  0  0  0  0  0  0  0
    1.9600    6.1840   20.4160 C   0  0  0  0  0  0  0  0  0  0  0  0
    2.0500    4.9800   21.1210 C   0  0  0  0  0  0  0  0  0  0  0  0
    2.5970    3.8580   20.5090 C   0  0  0  0  0  0  0  0  0  0  0  0
    2.6790    2.7070   21.1890 F   0  0  0  0  0  0  0  0  0  0  0  0
    3.0650    3.9150   19.2020 C   0  0  0  0  0  0  0  0  0  0  0  0
    2.9740    5.1160   18.4920 C   0  0  0  0  0  0  0  0  0  0  0  0
    1.5600    7.0530   20.9310 H   0  0  0  0  0  0  0  0  0  0  0  0
    1.7060    4.9110   22.1470 H   0  0  0  0  0  0  0  0  0  0  0  0
    3.4990    3.0310   18.7450 H   0  0  0  0  0  0  0  0  0  0  0  0
    3.3450    5.1610   17.4700 H   0  0  0  0  0  0  0  0  0  0  0  0
  1 21  1  0  0  0  0
  1 10  1  1  0  0  0
  2 11  1  0  0  0  0
  2  1  1  0  0  0  0
  3 13  1  6  0  0  0
  3  4  1  0  0  0  0
  3  2  1  0  0  0  0
  3 42  1  0  0  0  0
  4  9  1  0  0  0  0
  5  6  1  0  0  0  0
  5  4  2  0  0  0  0
  6  7  2  0  0  0  0
  7 16  1  0  0  0  0
  7  8  1  0  0  0  0
  8 17  1  0  0  0  0
  9  8  2  0  0  0  0
  9  1  1  0  0  0  0
 12  2  1  0  0  0  0
 14  5  1  0  0  0  0
 15  6  1  0  0  0  0
 18 19  1  0  0  0  0
 18 24  1  0  0  0  0
 19 20  2  0  0  0  0
 21 19  1  0  0  0  0
 22 18  1  0  0  0  0
 23 21  1  0  0  0  0
 24 25  1  0  0  0  0
 24 26  1  0  0  0  0
 27 38  1  0  0  0  0
 28 27  1  0  0  0  0
 28 34  1  0  0  0  0
 29 28  2  0  0  0  0
 30 29  1  0  0  0  0
 31 32  2  0  0  0  0
 31 29  1  0  0  0  0
 32 33  1  0  0  0  0
 33 24  1  0  0  0  0
 33 27  2  0  0  0  0
 35 31  1  0  0  0  0
 36 32  1  0  0  0  0
 37 40  1  0  0  0  0
 38 37  1  0  0  0  0
 38 39  2  0  0  0  0
 41 37  1  0  0  0  0
 42 45  1  0  0  0  0
 43 42  1  0  0  0  0
 43 46  1  0  0  0  0
 44 43  2  0  0  0  0
 46 47  1  0  0  0  0
 47 53  1  0  0  0  0
 47 48  2  0  0  0  0
 48 54  1  0  0  0  0
 49 48  1  0  0  0  0
 49 50  1  0  0  0  0
 51 49  2  0  0  0  0
 52 46  2  0  0  0  0
 52 51  1  0  0  0  0
 55 51  1  0  0  0  0
 56 52  1  0  0  0  0
M  END
>  <MODEL>
13

>  <REMARK>
 VINA RESULT:    -8.222      4.328      8.792
 INTER + INTRA:          -9.181
 INTER:                  -8.452
 INTRA:                  -0.728
 UNBOUND:                 1.925
  Name = 
  6 active torsions:
  status: ('A' for Active; 'I' for Inactive)
    1  A    between atoms: C_2  and  C_4
    2  A    between atoms: C_10  and  C_11
    3  A    between atoms: C_11  and  N_12
    4  A    between atoms: N_15  and  C_16
    5  A    between atoms: C_18  and  N_19
    6  A    between atoms: C_20  and  C_22
                            x       y       z     vdW  Elec       q    Type
                         _______ _______ _______ _____ _____    ______ ____

>  <TORSDO>
F 6

$$$$
=
 OpenBabel07192307433D

 56 59  0  0  1  0  0  0  0  0999 V2000
    2.2470    5.9800   19.8830 C   0  0  2  0  0  0  0  0  0  0  0  0
    1.5490    5.8750   18.5120 C   0  0  0  0  0  0  0  0  0  0  0  0
    1.8340    4.4530   17.9910 C   0  0  2  0  0  0  0  0  0  0  0  0
    1.9360    3.6900   19.2830 C   0  0  0  0  0  0  0  0  0  0  0  0
    1.8670    2.3180   19.4690 C   0  0  0  0  0  0  0  0  0  0  0  0
    2.0270    1.8140   20.7630 C   0  0  0  0  0  0  0  0  0  0  0  0
    2.2630    2.6810   21.8440 C   0  0  0  0  0  0  0  0  0  0  0  0
    2.3410    4.0610   21.6460 C   0  0  0  0  0  0  0  0  0  0  0  0
    2.1660    4.5570   20.3610 C   0  0  0  0  0  0  0  0  0  0  0  0
    3.2990    6.2640   19.7560 H   0  0  0  0  0  0  0  0  0  0  0  0
    1.8710    6.6660   17.8280 H   0  0  0  0  0  0  0  0  0  0  0  0
    0.4640    5.9910   18.6450 H   0  0  0  0  0  0  0  0  0  0  0  0
    1.0040    4.0920   17.3700 H   0  0  0  0  0  0  0  0  0  0  0  0
    1.6940    1.6470   18.6310 H   0  0  0  0  0  0  0  0  0  0  0  0
    1.9730    0.7420   20.9370 H   0  0  0  0  0  0  0  0  0  0  0  0
    2.3920    2.2700   22.8440 H   0  0  0  0  0  0  0  0  0  0  0  0
    2.5400    4.7300   22.4800 H   0  0  0  0  0  0  0  0  0  0  0  0
    0.7770    8.9320   21.3580 N   0  0  0  0  0  0  0  0  0  0  0  0
    1.5530    8.2430   20.4630 C   0  0  0  0  0  0  0  0  0  0  0  0
    2.1290    8.7480   19.5120 O   0  0  0  0  0  0  0  0  0  0  0  0
    1.5950    6.9120   20.7720 N   0  0  0  0  0  0  0  0  0  0  0  0
    0.9020    8.6010   22.3120 H   0  0  0  0  0  0  0  0  0  0  0  0
    0.8160    6.5700   21.3160 H   0  0  0  0  0  0  0  0  0  0  0  0
    0.7260   10.3700   21.2680 C   0  0  0  0  0  0  0  0  0  0  0  0
    0.7350   10.7880   22.2810 H   0  0  0  0  0  0  0  0  0  0  0  0
    1.6390   10.7300   20.7810 H   0  0  0  0  0  0  0  0  0  0  0  0
   -1.4570   11.7100   21.0670 C   0  0  0  0  0  0  0  0  0  0  0  0
   -2.5510   12.1330   20.2980 C   0  0  0  0  0  0  0  0  0  0  0  0
   -2.6830   11.6970   18.9860 C   0  0  0  0  0  0  0  0  0  0  0  0
   -3.7280   12.1090   18.2560 F   0  0  0  0  0  0  0  0  0  0  0  0
   -1.7570   10.8340   18.4250 C   0  0  0  0  0  0  0  0  0  0  0  0
   -0.6700   10.4000   19.1830 C   0  0  0  0  0  0  0  0  0  0  0  0
   -0.4930   10.8400   20.5090 C   0  0  0  0  0  0  0  0  0  0  0  0
   -3.3180   12.7730   20.7100 H   0  0  0  0  0  0  0  0  0  0  0  0
   -1.8880   10.4960   17.4050 H   0  0  0  0  0  0  0  0  0  0  0  0
    0.0440    9.7100   18.7380 H   0  0  0  0  0  0  0  0  0  0  0  0
   -0.7440   13.3570   22.7070 N   0  0  0  0  0  0  0  0  0  0  0  0
   -1.3680   12.1610   22.4820 C   0  0  0  0  0  0  0  0  0  0  0  0
   -1.8210   11.4990   23.4060 O   0  0  0  0  0  0  0  0  0  0  0  0
   -0.5730   13.6050   23.6770 H   0  0  0  0  0  0  0  0  0  0  0  0
   -0.1780   13.8160   22.0050 H   0  0  0  0  0  0  0  0  0  0  0  0
    3.0740    4.3630   17.2460 N   0  0  0  0  0  0  0  0  0  0  0  0
    3.8510    5.4780   17.0330 C   0  0  0  0  0  0  0  0  0  0  0  0
    3.5470    6.5900   17.4530 O   0  0  0  0  0  0  0  0  0  0  0  0
    3.2530    3.5080   16.7400 H   0  0  0  0  0  0  0  0  0  0  0  0
    5.0920    5.2990   16.2230 C   0  0  0  0  0  0  0  0  0  0  0  0
    6.3190    5.8870   16.5670 C   0  0  0  0  0  0  0  0  0  0  0  0
    7.4460    5.6740   15.7660 C   0  0  0  0  0  0  0  0  0  0  0  0
    7.3450    4.8880   14.6240 C   0  0  0  0  0  0  0  0  0  0  0  0
    8.4290    4.6860   13.8620 F   0  0  0  0  0  0  0  0  0  0  0  0
    6.1350    4.3130   14.2580 C   0  0  0  0  0  0  0  0  0  0  0  0
    5.0070    4.5200   15.0570 C   0  0  0  0  0  0  0  0  0  0  0  0
    6.4190    6.5340   17.4340 H   0  0  0  0  0  0  0  0  0  0  0  0
    8.3990    6.1240   16.0200 H   0  0  0  0  0  0  0  0  0  0  0  0
    6.0740    3.7110   13.3560 H   0  0  0  0  0  0  0  0  0  0  0  0
    4.0580    4.0730   14.7670 H   0  0  0  0  0  0  0  0  0  0  0  0
  1 10  1  6  0  0  0
  1  9  1  0  0  0  0
  1 21  1  0  0  0  0
  2 12  1  0  0  0  0
  2  1  1  0  0  0  0
  3 13  1  6  0  0  0
  3  2  1  0  0  0  0
  3  4  1  0  0  0  0
  4  5  2  0  0  0  0
  4  9  1  0  0  0  0
  5  6  1  0  0  0  0
  6 15  1  0  0  0  0
  6  7  2  0  0  0  0
  7 16  1  0  0  0  0
  8  7  1  0  0  0  0
  8 17  1  0  0  0  0
  9  8  2  0  0  0  0
 11  2  1  0  0  0  0
 14  5  1  0  0  0  0
 18 22  1  0  0  0  0
 19 21  1  0  0  0  0
 19 18  1  0  0  0  0
 20 19  2  0  0  0  0
 21 23  1  0  0  0  0
 24 18  1  0  0  0  0
 24 25  1  0  0  0  0
 26 24  1  0  0  0  0
 27 38  1  0  0  0  0
 28 34  1  0  0  0  0
 28 27  2  0  0  0  0
 29 28  1  0  0  0  0
 30 29  1  0  0  0  0
 31 29  2  0  0  0  0
 31 32  1  0  0  0  0
 32 33  2  0  0  0  0
 33 27  1  0  0  0  0
 33 24  1  0  0  0  0
 35 31  1  0  0  0  0
 36 32  1  0  0  0  0
 37 40  1  0  0  0  0
 38 37  1  0  0  0  0
 38 39  2  0  0  0  0
 41 37  1  0  0  0  0
 42  3  1  0  0  0  0
 43 42  1  0  0  0  0
 43 44  2  0  0  0  0
 45 42  1  0  0  0  0
 46 47  1  0  0  0  0
 46 43  1  0  0  0  0
 47 53  1  0  0  0  0
 48 54  1  0  0  0  0
 48 47  2  0  0  0  0
 49 48  1  0  0  0  0
 50 49  1  0  0  0  0
 51 49  2  0  0  0  0
 51 52  1  0  0  0  0
 52 46  2  0  0  0  0
 55 51  1  0  0  0  0
 56 52  1  0  0  0  0
M  END
>  <MODEL>
14

>  <REMARK>
 VINA RESULT:    -8.175      2.903     10.866
 INTER + INTRA:          -9.117
 INTER:                 -10.302
 INTRA:                   1.185
 UNBOUND:                 1.925
  Name = 
  6 active torsions:
  status: ('A' for Active; 'I' for Inactive)
    1  A    between atoms: C_2  and  C_4
    2  A    between atoms: C_10  and  C_11
    3  A    between atoms: C_11  and  N_12
    4  A    between atoms: N_15  and  C_16
    5  A    between atoms: C_18  and  N_19
    6  A    between atoms: C_20  and  C_22
                            x       y       z     vdW  Elec       q    Type
                         _______ _______ _______ _____ _____    ______ ____

>  <TORSDO>
F 6

$$$$
=
 OpenBabel07192307433D

 56 59  0  0  1  0  0  0  0  0999 V2000
    2.2440    6.2350   19.7430 C   0  0  2  0  0  0  0  0  0  0  0  0
    1.4830    6.0970   18.4090 C   0  0  0  0  0  0  0  0  0  0  0  0
    1.6910    4.6420   17.9430 C   0  0  2  0  0  0  0  0  0  0  0  0
    1.8200    3.9350   19.2640 C   0  0  0  0  0  0  0  0  0  0  0  0
    1.7070    2.5760   19.5170 C   0  0  0  0  0  0  0  0  0  0  0  0
    1.9040    2.1260   20.8250 C   0  0  0  0  0  0  0  0  0  0  0  0
    2.2190    3.0300   21.8530 C   0  0  0  0  0  0  0  0  0  0  0  0
    2.3420    4.3950   21.5890 C   0  0  0  0  0  0  0  0  0  0  0  0
    2.1290    4.8400   20.2900 C   0  0  0  0  0  0  0  0  0  0  0  0
    3.3000    6.4700   19.5580 H   0  0  0  0  0  0  0  0  0  0  0  0
    1.8050    6.8420   17.6760 H   0  0  0  0  0  0  0  0  0  0  0  0
    0.4110    6.2620   18.5810 H   0  0  0  0  0  0  0  0  0  0  0  0
    0.8220    4.2880   17.3750 H   0  0  0  0  0  0  0  0  0  0  0  0
    1.4720    1.8760   18.7200 H   0  0  0  0  0  0  0  0  0  0  0  0
    1.8160    1.0650   21.0510 H   0  0  0  0  0  0  0  0  0  0  0  0
    2.3760    2.6600   22.8660 H   0  0  0  0  0  0  0  0  0  0  0  0
    2.6020    5.0930   22.3810 H   0  0  0  0  0  0  0  0  0  0  0  0
    0.9010    9.2930   21.1200 N   0  0  0  0  0  0  0  0  0  0  0  0
    1.6000    8.5370   20.2150 C   0  0  0  0  0  0  0  0  0  0  0  0
    2.0960    8.9700   19.1860 O   0  0  0  0  0  0  0  0  0  0  0  0
    1.6680    7.2320   20.6140 N   0  0  0  0  0  0  0  0  0  0  0  0
    1.1030    9.0300   22.0810 H   0  0  0  0  0  0  0  0  0  0  0  0
    0.9360    6.9340   21.2420 H   0  0  0  0  0  0  0  0  0  0  0  0
    0.8420   10.7210   20.9320 C   0  0  0  0  0  0  0  0  0  0  0  0
    1.6520   11.1870   21.5040 H   0  0  0  0  0  0  0  0  0  0  0  0
    1.0410   10.9520   19.8790 H   0  0  0  0  0  0  0  0  0  0  0  0
   -1.4420   11.7820   20.4210 C   0  0  0  0  0  0  0  0  0  0  0  0
   -2.6790   12.2660   20.8700 C   0  0  0  0  0  0  0  0  0  0  0  0
   -2.9750   12.2520   22.2260 C   0  0  0  0  0  0  0  0  0  0  0  0
   -4.1610   12.7110   22.6480 F   0  0  0  0  0  0  0  0  0  0  0  0
   -2.0580   11.7830   23.1510 C   0  0  0  0  0  0  0  0  0  0  0  0
   -0.8210   11.3070   22.7170 C   0  0  0  0  0  0  0  0  0  0  0  0
   -0.4970   11.2860   21.3470 C   0  0  0  0  0  0  0  0  0  0  0  0
   -3.4070   12.6790   20.1860 H   0  0  0  0  0  0  0  0  0  0  0  0
   -2.3040   11.7950   24.2050 H   0  0  0  0  0  0  0  0  0  0  0  0
   -0.1020   10.9540   23.4530 H   0  0  0  0  0  0  0  0  0  0  0  0
   -1.0100   13.0990   18.4230 N   0  0  0  0  0  0  0  0  0  0  0  0
   -1.1400   11.8500   18.9650 C   0  0  0  0  0  0  0  0  0  0  0  0
   -1.0180   10.8440   18.2780 O   0  0  0  0  0  0  0  0  0  0  0  0
   -0.9270   13.1480   17.4110 H   0  0  0  0  0  0  0  0  0  0  0  0
   -1.3110   13.9360   18.9050 H   0  0  0  0  0  0  0  0  0  0  0  0
    2.8930    4.4690   17.1530 N   0  0  0  0  0  0  0  0  0  0  0  0
    3.8080    5.4900   17.0270 C   0  0  0  0  0  0  0  0  0  0  0  0
    3.6630    6.5810   17.5670 O   0  0  0  0  0  0  0  0  0  0  0  0
    2.9470    3.6550   16.5570 H   0  0  0  0  0  0  0  0  0  0  0  0
    4.9970    5.2340   16.1620 C   0  0  0  0  0  0  0  0  0  0  0  0
    4.9940    4.2960   15.1190 C   0  0  0  0  0  0  0  0  0  0  0  0
    6.1420    4.1080   14.3420 C   0  0  0  0  0  0  0  0  0  0  0  0
    7.2890    4.8460   14.6130 C   0  0  0  0  0  0  0  0  0  0  0  0
    8.3850    4.6640   13.8640 F   0  0  0  0  0  0  0  0  0  0  0  0
    7.3160    5.7660   15.6530 C   0  0  0  0  0  0  0  0  0  0  0  0
    6.1710    5.9580   16.4300 C   0  0  0  0  0  0  0  0  0  0  0  0
    4.1240    3.6810   14.9060 H   0  0  0  0  0  0  0  0  0  0  0  0
    6.1520    3.3860   13.5330 H   0  0  0  0  0  0  0  0  0  0  0  0
    8.2260    6.3240   15.8560 H   0  0  0  0  0  0  0  0  0  0  0  0
    6.1950    6.6760   17.2480 H   0  0  0  0  0  0  0  0  0  0  0  0
  1 10  1  6  0  0  0
  1  9  1  0  0  0  0
  1 21  1  0  0  0  0
  2 12  1  0  0  0  0
  2  1  1  0  0  0  0
  3 13  1  6  0  0  0
  3  2  1  0  0  0  0
  3  4  1  0  0  0  0
  4  5  2  0  0  0  0
  4  9  1  0  0  0  0
  5  6  1  0  0  0  0
  6 15  1  0  0  0  0
  6  7  2  0  0  0  0
  7 16  1  0  0  0  0
  8  7  1  0  0  0  0
  8 17  1  0  0  0  0
  9  8  2  0  0  0  0
 11  2  1  0  0  0  0
 14  5  1  0  0  0  0
 18 22  1  0  0  0  0
 19 21  1  0  0  0  0
 19 18  1  0  0  0  0
 20 19  2  0  0  0  0
 21 23  1  0  0  0  0
 24 18  1  0  0  0  0
 24 33  1  0  0  0  0
 24 25  1  0  0  0  0
 26 24  1  0  0  0  0
 27 28  2  0  0  0  0
 27 33  1  0  0  0  0
 28 29  1  0  0  0  0
 29 30  1  0  0  0  0
 29 31  2  0  0  0  0
 31 35  1  0  0  0  0
 32 31  1  0  0  0  0
 32 36  1  0  0  0  0
 33 32  2  0  0  0  0
 34 28  1  0  0  0  0
 37 41  1  0  0  0  0
 37 38  1  0  0  0  0
 38 27  1  0  0  0  0
 39 38  2  0  0  0  0
 40 37  1  0  0  0  0
 42  3  1  0  0  0  0
 43 42  1  0  0  0  0
 43 44  2  0  0  0  0
 45 42  1  0  0  0  0
 46 52  1  0  0  0  0
 46 43  1  0  0  0  0
 47 46  2  0  0  0  0
 48 49  2  0  0  0  0
 48 47  1  0  0  0  0
 49 51  1  0  0  0  0
 50 49  1  0  0  0  0
 51 55  1  0  0  0  0
 51 52  2  0  0  0  0
 52 56  1  0  0  0  0
 53 47  1  0  0  0  0
 54 48  1  0  0  0  0
M  END
>  <MODEL>
15

>  <REMARK>
 VINA RESULT:    -8.127      2.331     11.008
 INTER + INTRA:          -9.052
 INTER:                 -10.447
 INTRA:                   1.395
 UNBOUND:                 1.925
  Name = 
  6 active torsions:
  status: ('A' for Active; 'I' for Inactive)
    1  A    between atoms: C_2  and  C_4
    2  A    between atoms: C_10  and  C_11
    3  A    between atoms: C_11  and  N_12
    4  A    between atoms: N_15  and  C_16
    5  A    between atoms: C_18  and  N_19
    6  A    between atoms: C_20  and  C_22
                            x       y       z     vdW  Elec       q    Type
                         _______ _______ _______ _____ _____    ______ ____

>  <TORSDO>
F 6

$$$$
=
 OpenBabel07192307433D

 56 59  0  0  1  0  0  0  0  0999 V2000
    1.5610   11.3460   20.0050 C   0  0  2  0  0  0  0  0  0  0  0  0
    1.2330   10.7790   18.6100 C   0  0  0  0  0  0  0  0  0  0  0  0
    1.1450    9.2490   18.7760 C   0  0  2  0  0  0  0  0  0  0  0  0
    0.6600    9.1440   20.1960 C   0  0  0  0  0  0  0  0  0  0  0  0
    0.0920    8.0450   20.8230 C   0  0  0  0  0  0  0  0  0  0  0  0
   -0.2540    8.1550   22.1720 C   0  0  0  0  0  0  0  0  0  0  0  0
   -0.0180    9.3480   22.8760 C   0  0  0  0  0  0  0  0  0  0  0  0
    0.5650   10.4460   22.2410 C   0  0  0  0  0  0  0  0  0  0  0  0
    0.8910   10.3370   20.8950 C   0  0  0  0  0  0  0  0  0  0  0  0
    2.6440   11.3280   20.1800 H   0  0  0  0  0  0  0  0  0  0  0  0
    1.9610   11.0970   17.8580 H   0  0  0  0  0  0  0  0  0  0  0  0
    0.2530   11.1550   18.2840 H   0  0  0  0  0  0  0  0  0  0  0  0
    0.4250    8.8210   18.0680 H   0  0  0  0  0  0  0  0  0  0  0  0
   -0.0820    7.1190   20.2800 H   0  0  0  0  0  0  0  0  0  0  0  0
   -0.7050    7.3090   22.6860 H   0  0  0  0  0  0  0  0  0  0  0  0
   -0.2870    9.4140   23.9290 H   0  0  0  0  0  0  0  0  0  0  0  0
    0.7620   11.3640   22.7900 H   0  0  0  0  0  0  0  0  0  0  0  0
   -0.5520   14.2230   20.5610 N   0  0  0  0  0  0  0  0  0  0  0  0
   -0.2870   12.9180   20.2380 C   0  0  0  0  0  0  0  0  0  0  0  0
   -1.1390   12.0710   20.0210 O   0  0  0  0  0  0  0  0  0  0  0  0
    1.0600   12.6870   20.1950 N   0  0  0  0  0  0  0  0  0  0  0  0
    0.0950   14.8700   20.1160 H   0  0  0  0  0  0  0  0  0  0  0  0
    1.6250   13.3230   20.7400 H   0  0  0  0  0  0  0  0  0  0  0  0
   -1.9170   14.6830   20.5220 C   0  0  0  0  0  0  0  0  0  0  0  0
   -1.9230   15.7790   20.5470 H   0  0  0  0  0  0  0  0  0  0  0  0
   -2.3630   14.3990   19.5620 H   0  0  0  0  0  0  0  0  0  0  0  0
   -3.9380   13.4110   21.4720 C   0  0  0  0  0  0  0  0  0  0  0  0
   -4.6300   12.8890   22.5750 C   0  0  0  0  0  0  0  0  0  0  0  0
   -4.1240   13.0670   23.8550 C   0  0  0  0  0  0  0  0  0  0  0  0
   -4.7870   12.5620   24.9030 F   0  0  0  0  0  0  0  0  0  0  0  0
   -2.9500   13.7710   24.0670 C   0  0  0  0  0  0  0  0  0  0  0  0
   -2.2580   14.3020   22.9780 C   0  0  0  0  0  0  0  0  0  0  0  0
   -2.7310   14.1210   21.6650 C   0  0  0  0  0  0  0  0  0  0  0  0
   -5.5700   12.3690   22.4580 H   0  0  0  0  0  0  0  0  0  0  0  0
   -2.5820   13.9110   25.0750 H   0  0  0  0  0  0  0  0  0  0  0  0
   -1.3450   14.8660   23.1570 H   0  0  0  0  0  0  0  0  0  0  0  0
   -5.1470   14.3320   19.5740 N   0  0  0  0  0  0  0  0  0  0  0  0
   -4.5280   13.2390   20.1180 C   0  0  0  0  0  0  0  0  0  0  0  0
   -4.4750   12.1750   19.5140 O   0  0  0  0  0  0  0  0  0  0  0  0
   -5.6560   14.1810   18.7080 H   0  0  0  0  0  0  0  0  0  0  0  0
   -5.3940   15.1450   20.1210 H   0  0  0  0  0  0  0  0  0  0  0  0
    2.4270    8.5900   18.6250 N   0  0  0  0  0  0  0  0  0  0  0  0
    2.5050    7.2970   18.1610 C   0  0  0  0  0  0  0  0  0  0  0  0
    1.5160    6.6400   17.8540 O   0  0  0  0  0  0  0  0  0  0  0  0
    3.2320    9.0370   19.0380 H   0  0  0  0  0  0  0  0  0  0  0  0
    3.8650    6.6870   18.0740 C   0  0  0  0  0  0  0  0  0  0  0  0
    4.7780    7.0010   17.0560 C   0  0  0  0  0  0  0  0  0  0  0  0
    6.0390    6.3960   17.0350 C   0  0  0  0  0  0  0  0  0  0  0  0
    6.3820    5.4750   18.0190 C   0  0  0  0  0  0  0  0  0  0  0  0
    7.5920    4.9010   17.9950 F   0  0  0  0  0  0  0  0  0  0  0  0
    5.4840    5.1380   19.0240 C   0  0  0  0  0  0  0  0  0  0  0  0
    4.2240    5.7420   19.0500 C   0  0  0  0  0  0  0  0  0  0  0  0
    4.5250    7.6900   16.2550 H   0  0  0  0  0  0  0  0  0  0  0  0
    6.7530    6.6300   16.2530 H   0  0  0  0  0  0  0  0  0  0  0  0
    5.7660    4.4080   19.7770 H   0  0  0  0  0  0  0  0  0  0  0  0
    3.5200    5.4740   19.8360 H   0  0  0  0  0  0  0  0  0  0  0  0
  1 10  1  1  0  0  0
  1 21  1  0  0  0  0
  1  9  1  0  0  0  0
  2  3  1  0  0  0  0
  2  1  1  0  0  0  0
  3 13  1  6  0  0  0
  3  4  1  0  0  0  0
  4  5  2  0  0  0  0
  4  9  1  0  0  0  0
  5  6  1  0  0  0  0
  6 15  1  0  0  0  0
  6  7  2  0  0  0  0
  7 16  1  0  0  0  0
  8 17  1  0  0  0  0
  8  7  1  0  0  0  0
  9  8  2  0  0  0  0
 11  2  1  0  0  0  0
 12  2  1  0  0  0  0
 14  5  1  0  0  0  0
 19 18  1  0  0  0  0
 20 19  2  0  0  0  0
 21 19  1  0  0  0  0
 21 23  1  0  0  0  0
 22 18  1  0  0  0  0
 24 25  1  0  0  0  0
 24 18  1  0  0  0  0
 24 33  1  0  0  0  0
 26 24  1  0  0  0  0
 27 33  2  0  0  0  0
 27 28  1  0  0  0  0
 28 29  2  0  0  0  0
 29 31  1  0  0  0  0
 29 30  1  0  0  0  0
 31 35  1  0  0  0  0
 32 36  1  0  0  0  0
 32 31  2  0  0  0  0
 33 32  1  0  0  0  0
 34 28  1  0  0  0  0
 37 38  1  0  0  0  0
 37 41  1  0  0  0  0
 38 27  1  0  0  0  0
 39 38  2  0  0  0  0
 40 37  1  0  0  0  0
 42  3  1  0  0  0  0
 42 45  1  0  0  0  0
 43 42  1  0  0  0  0
 44 43  2  0  0  0  0
 46 43  1  0  0  0  0
 46 52  1  0  0  0  0
 47 46  2  0  0  0  0
 48 47  1  0  0  0  0
 48 49  2  0  0  0  0
 49 51  1  0  0  0  0
 50 49  1  0  0  0  0
 51 52  2  0  0  0  0
 51 55  1  0  0  0  0
 52 56  1  0  0  0  0
 53 47  1  0  0  0  0
 54 48  1  0  0  0  0
M  END
>  <MODEL>
16

>  <REMARK>
 VINA RESULT:    -7.916      2.248     10.577
 INTER + INTRA:          -8.768
 INTER:                  -8.601
 INTRA:                  -0.166
 UNBOUND:                 1.925
  Name = 
  6 active torsions:
  status: ('A' for Active; 'I' for Inactive)
    1  A    between atoms: C_2  and  C_4
    2  A    between atoms: C_10  and  C_11
    3  A    between atoms: C_11  and  N_12
    4  A    between atoms: N_15  and  C_16
    5  A    between atoms: C_18  and  N_19
    6  A    between atoms: C_20  and  C_22
                            x       y       z     vdW  Elec       q    Type
                         _______ _______ _______ _____ _____    ______ ____

>  <TORSDO>
F 6

$$$$
