REMARK  Name = 
REMARK  10 active torsions:
REMARK  status: ('A' for Active; 'I' for Inactive)
REMARK    1  A    between atoms: C_1  and  C_2
REMARK    2  A    between atoms: C_4  and  C_5
REMARK    3  A    between atoms: N_7  and  C_8
REMARK    4  A    between atoms: C_15  and  N_16
REMARK    5  A    between atoms: N_16  and  C_17
REMARK    6  A    between atoms: C_17  and  C_18
REMARK    7  A    between atoms: C_22  and  C_24
REMARK    8  A    between atoms: C_24  and  C_25
REMARK    9  A    between atoms: C_24  and  C_26
REMARK   10  A    between atoms: C_24  and  C_27
REMARK                            x       y       z     vdW  Elec       q    Type
REMARK                         _______ _______ _______ _____ _____    ______ ____
ROOT
ATOM      1  N   UNL     1      -0.272  -0.739   1.140  0.00  0.00    -0.343 N 
ATOM      2  H   UNL     1      -0.573   0.211   1.332  0.00  0.00    +0.146 HD
ENDROOT
BRANCH   1   8
ATOM      3  C   UNL     1       1.979   0.111   1.493  0.00  0.00    -0.029 A 
ATOM      4  C   UNL     1       3.364   0.053   1.240  0.00  0.00    -0.045 A 
ATOM      5  C   UNL     1       3.892  -0.899   0.364  0.00  0.00    +0.037 A 
ATOM      6  C   UNL     1       3.034  -1.818  -0.237  0.00  0.00    -0.048 A 
ATOM      7  C   UNL     1       1.657  -1.760   0.005  0.00  0.00    -0.040 A 
ATOM      8  C   UNL     1       1.096  -0.779   0.836  0.00  0.00    +0.030 A 
ATOM      9  H   UNL     1       4.028   0.733   1.768  0.00  0.00    +0.063 HD
ATOM     10  H   UNL     1       3.432  -2.588  -0.895  0.00  0.00    +0.063 HD
ATOM     11  H   UNL     1       1.037  -2.508  -0.481  0.00  0.00    +0.064 HD
BRANCH   3  12
ATOM     12  C   UNL     1       1.475   1.143   2.469  0.00  0.00    -0.038 C 
ATOM     13  H   UNL     1       0.839   0.677   3.229  0.00  0.00    +0.028 HD
ATOM     14  H   UNL     1       0.909   1.915   1.939  0.00  0.00    +0.028 HD
ATOM     15  H   UNL     1       2.298   1.634   2.998  0.00  0.00    +0.028 HD
ENDBRANCH   3  12
BRANCH   5  16
ATOM     16  C   UNL     1       5.351  -0.992   0.080  0.00  0.00    +0.244 C 
ATOM     17  O   UNL     1       5.846  -2.059  -0.267  0.00  0.00    -0.270 OA
ATOM     18  N   UNL     1       6.072   0.181   0.196  0.00  0.00    -0.308 N 
ATOM     19  H   UNL     1       5.558   1.051   0.214  0.00  0.00    +0.149 HD
BRANCH  18  20
ATOM     20  C   UNL     1       7.467   0.234  -0.185  0.00  0.00    +0.023 C 
ATOM     21  C   UNL     1       8.175   1.465   0.365  0.00  0.00    -0.034 C 
ATOM     22  C   UNL     1       9.435   1.562  -0.485  0.00  0.00    -0.051 C 
ATOM     23  C   UNL     1       9.068   0.962  -1.843  0.00  0.00    -0.051 C 
ATOM     24  C   UNL     1       7.665   0.380  -1.691  0.00  0.00    -0.034 C 
ATOM     25  H   UNL     1       7.968  -0.677   0.168  0.00  0.00    +0.050 HD
ATOM     26  H   UNL     1       8.401   1.375   1.432  0.00  0.00    +0.028 HD
ATOM     27  H   UNL     1       7.563   2.365   0.231  0.00  0.00    +0.028 HD
ATOM     28  H   UNL     1      10.243   0.977  -0.030  0.00  0.00    +0.027 HD
ATOM     29  H   UNL     1       9.786   2.595  -0.574  0.00  0.00    +0.027 HD
ATOM     30  H   UNL     1       9.091   1.717  -2.635  0.00  0.00    +0.027 HD
ATOM     31  H   UNL     1       9.786   0.181  -2.115  0.00  0.00    +0.027 HD
ATOM     32  H   UNL     1       6.929   1.075  -2.115  0.00  0.00    +0.028 HD
ATOM     33  H   UNL     1       7.555  -0.572  -2.221  0.00  0.00    +0.028 HD
ENDBRANCH  18  20
ENDBRANCH   5  16
ENDBRANCH   1   8
BRANCH   1  34
ATOM     34  C   UNL     1      -1.236  -1.506   0.355  0.00  0.00    +0.012 C 
ATOM     35  H   UNL     1      -1.199  -1.203  -0.698  0.00  0.00    +0.046 HD
ATOM     36  H   UNL     1      -0.988  -2.572   0.418  0.00  0.00    +0.046 HD
BRANCH  34  37
ATOM     37  C   UNL     1      -2.656  -1.312   0.917  0.00  0.00    -0.023 C 
ATOM     38  C   UNL     1      -3.203   0.104   0.644  0.00  0.00    -0.033 C 
ATOM     39  C   UNL     1      -4.656   0.234   1.103  0.00  0.00    +0.015 C 
ATOM     40  N   UNL     1      -5.477  -0.791   0.468  0.00  0.00    -0.301 N 
ATOM     41  C   UNL     1      -6.392  -0.636  -0.567  0.00  0.00    +0.221 C 
ATOM     42  O   UNL     1      -6.816  -1.638  -1.157  0.00  0.00    -0.275 OA
ATOM     43  C   UNL     1      -5.043  -2.149   0.801  0.00  0.00    +0.015 C 
ATOM     44  C   UNL     1      -3.608  -2.370   0.325  0.00  0.00    -0.033 C 
ATOM     45  H   UNL     1      -2.625  -1.459   2.006  0.00  0.00    +0.032 HD
ATOM     46  H   UNL     1      -2.601   0.858   1.163  0.00  0.00    +0.028 HD
ATOM     47  H   UNL     1      -3.139   0.321  -0.430  0.00  0.00    +0.028 HD
ATOM     48  H   UNL     1      -5.010   1.239   0.908  0.00  0.00    +0.046 HD
ATOM     49  H   UNL     1      -4.723   0.086   2.188  0.00  0.00    +0.046 HD
ATOM     50  H   UNL     1      -5.105  -2.261   1.891  0.00  0.00    +0.046 HD
ATOM     51  H   UNL     1      -5.700  -2.909   0.367  0.00  0.00    +0.046 HD
ATOM     52  H   UNL     1      -3.280  -3.375   0.615  0.00  0.00    +0.028 HD
ATOM     53  H   UNL     1      -3.577  -2.322  -0.772  0.00  0.00    +0.028 HD
BRANCH  41  54
ATOM     54  C   UNL     1      -6.912   0.763  -1.002  0.00  0.00    +0.039 C 
BRANCH  54  55
ATOM     55  C   UNL     1      -7.623   1.486   0.151  0.00  0.00    -0.052 C 
ATOM     56  H   UNL     1      -6.954   1.778   0.962  0.00  0.00    +0.024 HD
ATOM     57  H   UNL     1      -8.110   2.403  -0.201  0.00  0.00    +0.024 HD
ATOM     58  H   UNL     1      -8.394   0.846   0.593  0.00  0.00    +0.024 HD
ENDBRANCH  54  55
BRANCH  54  59
ATOM     59  C   UNL     1      -5.806   1.618  -1.638  0.00  0.00    -0.052 C 
ATOM     60  H   UNL     1      -5.126   2.064  -0.911  0.00  0.00    +0.024 HD
ATOM     61  H   UNL     1      -6.231   2.455  -2.205  0.00  0.00    +0.024 HD
ATOM     62  H   UNL     1      -5.200   1.022  -2.329  0.00  0.00    +0.024 HD
ENDBRANCH  54  59
BRANCH  54  63
ATOM     63  C   UNL     1      -7.983   0.547  -2.106  0.00  0.00    -0.052 C 
ATOM     64  H   UNL     1      -8.812  -0.072  -1.743  0.00  0.00    +0.024 HD
ATOM     65  H   UNL     1      -8.409   1.499  -2.443  0.00  0.00    +0.024 HD
ATOM     66  H   UNL     1      -7.557   0.047  -2.983  0.00  0.00    +0.024 HD
ENDBRANCH  54  63
ENDBRANCH  41  54
ENDBRANCH  34  37
ENDBRANCH   1  34
TORSDOF 10
