REMARK  Name = 
REMARK  8 active torsions:
REMARK  status: ('A' for Active; 'I' for Inactive)
REMARK    1  A    between atoms: C_1  and  C_2
REMARK    2  A    between atoms: C_2  and  C_3
REMARK    3  A    between atoms: C_2  and  C_10
REMARK    4  A    between atoms: C_3  and  C_4
REMARK    5  A    between atoms: N_8  and  C_9
REMARK    6  A    between atoms: N_13  and  C_14
REMARK    7  A    between atoms: C_18  and  N_19
REMARK    8  A    between atoms: C_26  and  C_27
REMARK                            x       y       z     vdW  Elec       q    Type
REMARK                         _______ _______ _______ _____ _____    ______ ____
ROOT
ATOM      1  C   UNL     1       1.550  -0.467   0.407  0.00  0.00    -0.038 A 
ATOM      2  C   UNL     1       1.632   0.893   0.719  0.00  0.00    -0.018 A 
ATOM      3  C   UNL     1       0.477   1.669   0.729  0.00  0.00    +0.121 A 
ATOM      4  N   UNL     1       0.605   3.050   1.025  0.00  0.00    -0.326 N 
ATOM      5  N   UNL     1      -0.726   1.152   0.411  0.00  0.00    -0.217 NA
ATOM      6  C   UNL     1      -0.825  -0.163   0.106  0.00  0.00    +0.130 A 
ATOM      7  C   UNL     1       0.290  -0.993   0.096  0.00  0.00    -0.018 A 
ATOM      8  H   UNL     1       2.587   1.356   0.941  0.00  0.00    +0.065 HD
ATOM      9  H   UNL     1       1.179   3.148   1.859  0.00  0.00    +0.148 HD
ATOM     10  H   UNL     1       0.205  -2.044  -0.158  0.00  0.00    +0.065 HD
ENDROOT
BRANCH   6  11
ATOM     11  N   UNL     1      -2.115  -0.633  -0.201  0.00  0.00    -0.248 N 
ATOM     12  C   UNL     1      -3.236   0.292  -0.183  0.00  0.00    +0.048 C 
ATOM     13  C   UNL     1      -4.395  -0.580  -0.551  0.00  0.00    -0.006 A 
ATOM     14  C   UNL     1      -3.949  -1.884  -0.756  0.00  0.00    +0.042 A 
ATOM     15  C   UNL     1      -4.798  -2.916  -1.108  0.00  0.00    -0.049 A 
ATOM     16  C   UNL     1      -6.152  -2.612  -1.256  0.00  0.00    -0.060 A 
ATOM     17  C   UNL     1      -6.619  -1.300  -1.052  0.00  0.00    -0.050 A 
ATOM     18  C   UNL     1      -5.742  -0.258  -0.693  0.00  0.00    +0.060 A 
ATOM     19  C   UNL     1      -2.497  -1.924  -0.532  0.00  0.00    +0.253 C 
ATOM     20  O   UNL     1      -1.849  -2.948  -0.637  0.00  0.00    -0.270 OA
ATOM     21  H   UNL     1      -3.361   0.707   0.822  0.00  0.00    +0.052 HD
ATOM     22  H   UNL     1      -3.083   1.077  -0.931  0.00  0.00    +0.052 HD
ATOM     23  H   UNL     1      -4.421  -3.922  -1.260  0.00  0.00    +0.063 HD
ATOM     24  H   UNL     1      -6.853  -3.397  -1.532  0.00  0.00    +0.062 HD
ATOM     25  H   UNL     1      -7.683  -1.099  -1.174  0.00  0.00    +0.062 HD
BRANCH  18  26
ATOM     26  C   UNL     1      -6.231   1.148  -0.467  0.00  0.00    +0.418 C 
ATOM     27  F   UNL     1      -7.573   1.296  -0.644  0.00  0.00    -0.166 F 
ATOM     28  F   UNL     1      -5.641   2.042  -1.306  0.00  0.00    -0.166 F 
ATOM     29  F   UNL     1      -5.967   1.589   0.794  0.00  0.00    -0.166 F 
ENDBRANCH  18  26
ENDBRANCH   6  11
BRANCH   4  30
ATOM     30  C   UNL     1      -0.615   3.866   1.021  0.00  0.00    +0.022 C 
ATOM     31  C   UNL     1      -0.650   5.188   1.735  0.00  0.00    -0.033 C 
ATOM     32  C   UNL     1      -1.449   4.030   2.260  0.00  0.00    -0.033 C 
ATOM     33  H   UNL     1      -1.142   3.820   0.070  0.00  0.00    +0.050 HD
ATOM     34  H   UNL     1       0.225   5.500   2.292  0.00  0.00    +0.028 HD
ATOM     35  H   UNL     1      -1.186   6.001   1.260  0.00  0.00    +0.028 HD
ATOM     36  H   UNL     1      -2.525   4.050   2.137  0.00  0.00    +0.028 HD
ATOM     37  H   UNL     1      -1.117   3.545   3.170  0.00  0.00    +0.028 HD
ENDBRANCH   4  30
BRANCH   1  38
ATOM     38  C   UNL     1       2.779  -1.365   0.360  0.00  0.00    -0.012 C 
ATOM     39  H   UNL     1       2.436  -2.409   0.305  0.00  0.00    +0.035 HD
BRANCH  38  40
ATOM     40  C   UNL     1       3.607  -1.250   1.649  0.00  0.00    -0.058 C 
ATOM     41  H   UNL     1       4.094  -0.273   1.738  0.00  0.00    +0.024 HD
ATOM     42  H   UNL     1       4.393  -2.013   1.680  0.00  0.00    +0.024 HD
ATOM     43  H   UNL     1       2.977  -1.394   2.534  0.00  0.00    +0.024 HD
ENDBRANCH  38  40
BRANCH  38  44
ATOM     44  C   UNL     1       3.611  -1.052  -0.901  0.00  0.00    +0.014 C 
ATOM     45  H   UNL     1       2.964  -1.095  -1.788  0.00  0.00    +0.035 HD
ATOM     46  H   UNL     1       3.991  -0.025  -0.856  0.00  0.00    +0.035 HD
BRANCH  44  47
ATOM     47  C   UNL     1       4.723  -2.024  -1.108  0.00  0.00    +0.134 A 
ATOM     48  N   UNL     1       4.600  -3.329  -1.246  0.00  0.00    -0.135 NA
ATOM     49  N   UNL     1       5.855  -3.865  -1.415  0.00  0.00    -0.138 NA
ATOM     50  C   UNL     1       6.716  -2.877  -1.380  0.00  0.00    +0.120 A 
ATOM     51  N   UNL     1       6.054  -1.704  -1.191  0.00  0.00    -0.320 N 
ATOM     52  H   UNL     1       7.789  -2.964  -1.484  0.00  0.00    +0.105 HD
BRANCH  51  53
ATOM     53  C   UNL     1       6.654  -0.401  -1.095  0.00  0.00    +0.014 C 
ATOM     54  H   UNL     1       7.739  -0.489  -1.188  0.00  0.00    +0.046 HD
ATOM     55  H   UNL     1       6.402   0.028  -0.122  0.00  0.00    +0.046 HD
ATOM     56  H   UNL     1       6.265   0.222  -1.904  0.00  0.00    +0.046 HD
ENDBRANCH  51  53
ENDBRANCH  44  47
ENDBRANCH  38  44
ENDBRANCH   1  38
TORSDOF 8
