REMARK  Name = 
REMARK  8 active torsions:
REMARK  status: ('A' for Active; 'I' for Inactive)
REMARK    1  A    between atoms: C_1  and  C_2
REMARK    2  A    between atoms: C_6  and  N_7
REMARK    3  A    between atoms: N_10  and  C_11
REMARK    4  A    between atoms: C_11  and  C_12
REMARK    5  A    between atoms: C_12  and  C_13
REMARK    6  A    between atoms: C_15  and  O_16
REMARK    7  A    between atoms: C_18  and  C_19
REMARK    8  A    between atoms: C_20  and  C_21
REMARK                            x       y       z     vdW  Elec       q    Type
REMARK                         _______ _______ _______ _____ _____    ______ ____
ROOT
ATOM      1  N   UNL     1      -2.907   0.527   0.028  0.00  0.00    -0.327 N 
ATOM      2  C   UNL     1      -2.043  -0.526   0.612  0.00  0.00    +0.025 C 
ATOM      3  C   UNL     1      -0.822   0.115   1.308  0.00  0.00    +0.015 C 
ATOM      4  N   UNL     1       0.074   0.854   0.381  0.00  0.00    -0.299 NA
ATOM      5  C   UNL     1      -0.683   1.383  -0.779  0.00  0.00    +0.015 C 
ATOM      6  C   UNL     1      -2.174   1.693  -0.518  0.00  0.00    +0.025 C 
ATOM      7  H   UNL     1      -1.694  -1.230  -0.156  0.00  0.00    +0.048 HD
ATOM      8  H   UNL     1      -2.615  -1.099   1.352  0.00  0.00    +0.048 HD
ATOM      9  H   UNL     1      -1.199   0.783   2.094  0.00  0.00    +0.044 HD
ATOM     10  H   UNL     1      -0.245  -0.676   1.800  0.00  0.00    +0.044 HD
ATOM     11  H   UNL     1      -0.622   0.620  -1.565  0.00  0.00    +0.044 HD
ATOM     12  H   UNL     1      -0.195   2.269  -1.203  0.00  0.00    +0.044 HD
ATOM     13  H   UNL     1      -2.243   2.499   0.223  0.00  0.00    +0.048 HD
ATOM     14  H   UNL     1      -2.639   2.083  -1.432  0.00  0.00    +0.048 HD
ENDROOT
BRANCH   1  19
ATOM     15  C   UNL     1      -7.773  -0.809   0.615  0.00  0.00    +0.039 A 
ATOM     16  C   UNL     1      -6.873  -0.220   1.489  0.00  0.00    -0.040 A 
ATOM     17  C   UNL     1      -5.586   0.044   1.034  0.00  0.00    -0.049 A 
ATOM     18  C   UNL     1      -5.208  -0.278  -0.282  0.00  0.00    +0.021 A 
ATOM     19  C   UNL     1      -3.906  -0.027  -0.805  0.00  0.00    +0.039 A 
ATOM     20  C   UNL     1      -3.634  -0.375  -2.136  0.00  0.00    -0.040 A 
ATOM     21  C   UNL     1      -4.618  -0.949  -2.935  0.00  0.00    -0.058 A 
ATOM     22  C   UNL     1      -5.886  -1.187  -2.406  0.00  0.00    -0.036 A 
ATOM     23  C   UNL     1      -6.203  -0.865  -1.096  0.00  0.00    +0.073 A 
ATOM     24  N   UNL     1      -7.449  -1.126  -0.660  0.00  0.00    -0.252 NA
ATOM     25  H   UNL     1      -7.160   0.035   2.503  0.00  0.00    +0.064 HD
ATOM     26  H   UNL     1      -4.871   0.512   1.706  0.00  0.00    +0.063 HD
ATOM     27  H   UNL     1      -2.647  -0.216  -2.560  0.00  0.00    +0.064 HD
ATOM     28  H   UNL     1      -4.401  -1.217  -3.965  0.00  0.00    +0.062 HD
ATOM     29  H   UNL     1      -6.651  -1.637  -3.034  0.00  0.00    +0.064 HD
BRANCH  15  30
ATOM     30  C   UNL     1      -9.175  -1.097   1.058  0.00  0.00    -0.022 C 
ATOM     31  H   UNL     1      -9.716  -0.162   1.225  0.00  0.00    +0.029 HD
ATOM     32  H   UNL     1      -9.171  -1.681   1.983  0.00  0.00    +0.029 HD
ATOM     33  H   UNL     1      -9.713  -1.672   0.297  0.00  0.00    +0.029 HD
ENDBRANCH  15  30
ENDBRANCH   1  19
BRANCH   4  34
ATOM     34  C   UNL     1       0.816   1.924   1.077  0.00  0.00    +0.003 C 
ATOM     35  H   UNL     1       1.351   2.537   0.340  0.00  0.00    +0.043 HD
ATOM     36  H   UNL     1       0.110   2.594   1.585  0.00  0.00    +0.043 HD
BRANCH  34  37
ATOM     37  C   UNL     1       1.854   1.419   2.100  0.00  0.00    -0.015 C 
ATOM     38  H   UNL     1       1.419   0.687   2.791  0.00  0.00    +0.033 HD
ATOM     39  H   UNL     1       2.150   2.267   2.732  0.00  0.00    +0.033 HD
BRANCH  37  40
ATOM     40  C   UNL     1       3.093   0.836   1.460  0.00  0.00    -0.041 A 
ATOM     41  C   UNL     1       3.088  -0.442   0.913  0.00  0.00    -0.016 A 
ATOM     42  C   UNL     1       4.242  -0.948   0.306  0.00  0.00    +0.127 A 
ATOM     43  C   UNL     1       5.452  -0.202   0.226  0.00  0.00    +0.048 A 
ATOM     44  C   UNL     1       6.684  -0.627  -0.370  0.00  0.00    -0.015 A 
ATOM     45  C   UNL     1       7.766   0.259  -0.362  0.00  0.00    +0.064 A 
ATOM     46  N   UNL     1       7.671   1.482   0.195  0.00  0.00    -0.154 NA
ATOM     47  N   UNL     1       6.503   1.888   0.767  0.00  0.00    -0.149 NA
ATOM     48  C   UNL     1       5.431   1.090   0.787  0.00  0.00    +0.097 A 
ATOM     49  C   UNL     1       4.274   1.581   1.383  0.00  0.00    -0.031 A 
ATOM     50  H   UNL     1       2.179  -1.034   0.954  0.00  0.00    +0.066 HD
ATOM     51  H   UNL     1       4.305   2.587   1.799  0.00  0.00    +0.064 HD
BRANCH  44  52
ATOM     52  C   UNL     1       6.817  -1.992  -0.993  0.00  0.00    -0.037 C 
ATOM     53  H   UNL     1       6.120  -2.098  -1.830  0.00  0.00    +0.028 HD
ATOM     54  H   UNL     1       7.813  -2.187  -1.396  0.00  0.00    +0.028 HD
ATOM     55  H   UNL     1       6.633  -2.769  -0.244  0.00  0.00    +0.028 HD
ENDBRANCH  44  52
BRANCH  45  56
ATOM     56  C   UNL     1       9.101  -0.063  -0.961  0.00  0.00    -0.020 C 
ATOM     57  H   UNL     1       9.793   0.780  -0.850  0.00  0.00    +0.029 HD
ATOM     58  H   UNL     1       9.002  -0.269  -2.031  0.00  0.00    +0.029 HD
ATOM     59  H   UNL     1       9.549  -0.925  -0.458  0.00  0.00    +0.029 HD
ENDBRANCH  45  56
BRANCH  42  60
ATOM     60  O   UNL     1       4.174  -2.209  -0.230  0.00  0.00    -0.506 OA
ATOM     61  H   UNL     1       3.261  -2.533  -0.164  0.00  0.00    +0.292 HD
ENDBRANCH  42  60
ENDBRANCH  37  40
ENDBRANCH  34  37
ENDBRANCH   4  34
TORSDOF 8
