REMARK  Name = 
REMARK  7 active torsions:
REMARK  status: ('A' for Active; 'I' for Inactive)
REMARK    1  A    between atoms: C_1  and  C_2
REMARK    2  A    between atoms: C_2  and  C_3
REMARK    3  A    between atoms: C_2  and  C_10
REMARK    4  A    between atoms: C_3  and  C_4
REMARK    5  A    between atoms: N_8  and  C_9
REMARK    6  A    between atoms: C_14  and  N_15
REMARK    7  A    between atoms: C_22  and  C_23
REMARK                            x       y       z     vdW  Elec       q    Type
REMARK                         _______ _______ _______ _____ _____    ______ ____
ROOT
ATOM      1  C   UNL     1      -2.772  -1.230  -0.965  0.00  0.00    -0.007 A 
ATOM      2  C   UNL     1      -3.611  -0.631  -1.911  0.00  0.00    -0.055 A 
ATOM      3  C   UNL     1      -3.113   0.346  -2.769  0.00  0.00    -0.060 A 
ATOM      4  C   UNL     1      -1.776   0.749  -2.686  0.00  0.00    -0.037 A 
ATOM      5  C   UNL     1      -0.902   0.184  -1.750  0.00  0.00    +0.072 A 
ATOM      6  C   UNL     1      -1.427  -0.816  -0.908  0.00  0.00    +0.148 A 
ATOM      7  F   UNL     1      -0.637  -1.405   0.004  0.00  0.00    -0.203 F 
ATOM      8  H   UNL     1      -4.659  -0.911  -1.991  0.00  0.00    +0.062 HD
ATOM      9  H   UNL     1      -3.765   0.804  -3.510  0.00  0.00    +0.062 HD
ATOM     10  H   UNL     1      -1.448   1.516  -3.381  0.00  0.00    +0.064 HD
ENDROOT
BRANCH   5  11
ATOM     11  N   UNL     1       0.456   0.610  -1.648  0.00  0.00    -0.260 N 
ATOM     12  C   UNL     1       1.382   0.035  -0.675  0.00  0.00    +0.048 C 
ATOM     13  C   UNL     1       2.647   0.773  -0.928  0.00  0.00    +0.004 A 
ATOM     14  C   UNL     1       2.468   1.693  -1.948  0.00  0.00    +0.045 A 
ATOM     15  C   UNL     1       3.476   2.517  -2.388  0.00  0.00    -0.031 A 
ATOM     16  C   UNL     1       4.680   2.358  -1.737  0.00  0.00    +0.029 A 
ATOM     17  N   UNL     1       4.895   1.465  -0.730  0.00  0.00    -0.259 NA
ATOM     18  C   UNL     1       3.877   0.662  -0.316  0.00  0.00    +0.050 A 
ATOM     19  C   UNL     1       1.079   1.604  -2.409  0.00  0.00    +0.252 C 
ATOM     20  O   UNL     1       0.652   2.321  -3.295  0.00  0.00    -0.270 OA
ATOM     21  H   UNL     1       1.513  -1.033  -0.874  0.00  0.00    +0.052 HD
ATOM     22  H   UNL     1       1.022   0.231   0.341  0.00  0.00    +0.052 HD
ATOM     23  H   UNL     1       3.331   3.234  -3.184  0.00  0.00    +0.064 HD
ATOM     24  H   UNL     1       5.546   2.959  -2.005  0.00  0.00    +0.083 HD
BRANCH  18  25
ATOM     25  C   UNL     1       4.217  -0.327   0.864  0.00  0.00    +0.002 C 
ATOM     26  C   UNL     1       5.699  -0.596   1.251  0.00  0.00    -0.045 C 
ATOM     27  C   UNL     1       5.548   0.462   2.360  0.00  0.00    -0.052 C 
ATOM     28  C   UNL     1       4.031   0.202   2.315  0.00  0.00    -0.045 C 
ATOM     29  H   UNL     1       3.681  -1.276   0.712  0.00  0.00    +0.036 HD
ATOM     30  H   UNL     1       6.458  -0.383   0.493  0.00  0.00    +0.027 HD
ATOM     31  H   UNL     1       5.871  -1.609   1.634  0.00  0.00    +0.027 HD
ATOM     32  H   UNL     1       6.041   0.229   3.308  0.00  0.00    +0.027 HD
ATOM     33  H   UNL     1       5.834   1.473   2.051  0.00  0.00    +0.027 HD
ATOM     34  H   UNL     1       3.401   1.087   2.436  0.00  0.00    +0.027 HD
ATOM     35  H   UNL     1       3.694  -0.567   3.021  0.00  0.00    +0.027 HD
ENDBRANCH  18  25
ENDBRANCH   5  11
BRANCH   1  36
ATOM     36  C   UNL     1      -3.283  -2.265   0.029  0.00  0.00    -0.009 C 
ATOM     37  H   UNL     1      -2.419  -2.780   0.473  0.00  0.00    +0.035 HD
BRANCH  36  38
ATOM     38  C   UNL     1      -4.108  -3.362  -0.658  0.00  0.00    -0.058 C 
ATOM     39  H   UNL     1      -3.551  -3.810  -1.489  0.00  0.00    +0.024 HD
ATOM     40  H   UNL     1      -5.056  -2.981  -1.052  0.00  0.00    +0.024 HD
ATOM     41  H   UNL     1      -4.347  -4.161   0.052  0.00  0.00    +0.024 HD
ENDBRANCH  36  38
BRANCH  36  42
ATOM     42  C   UNL     1      -4.101  -1.608   1.160  0.00  0.00    +0.014 C 
ATOM     43  H   UNL     1      -4.587  -2.392   1.756  0.00  0.00    +0.035 HD
ATOM     44  H   UNL     1      -4.912  -0.993   0.750  0.00  0.00    +0.035 HD
BRANCH  42  45
ATOM     45  C   UNL     1      -3.243  -0.815   2.091  0.00  0.00    +0.134 A 
ATOM     46  N   UNL     1      -2.417  -1.315   2.990  0.00  0.00    -0.135 NA
ATOM     47  N   UNL     1      -1.791  -0.271   3.628  0.00  0.00    -0.138 NA
ATOM     48  C   UNL     1      -2.254   0.843   3.113  0.00  0.00    +0.120 A 
ATOM     49  N   UNL     1      -3.173   0.553   2.152  0.00  0.00    -0.320 N 
ATOM     50  H   UNL     1      -1.962   1.844   3.396  0.00  0.00    +0.105 HD
BRANCH  49  51
ATOM     51  C   UNL     1      -3.909   1.515   1.378  0.00  0.00    +0.014 C 
ATOM     52  H   UNL     1      -3.739   2.517   1.782  0.00  0.00    +0.046 HD
ATOM     53  H   UNL     1      -3.560   1.474   0.345  0.00  0.00    +0.046 HD
ATOM     54  H   UNL     1      -4.975   1.279   1.438  0.00  0.00    +0.046 HD
ENDBRANCH  49  51
ENDBRANCH  42  45
ENDBRANCH  36  42
ENDBRANCH   1  36
TORSDOF 7
