REMARK  Name = 
REMARK  9 active torsions:
REMARK  status: ('A' for Active; 'I' for Inactive)
REMARK    1  A    between atoms: C_1  and  C_2
REMARK    2  A    between atoms: C_2  and  S_3
REMARK    3  A    between atoms: C_2  and  C_10
REMARK    4  A    between atoms: S_3  and  C_4
REMARK    5  A    between atoms: N_8  and  C_9
REMARK    6  A    between atoms: C_14  and  N_15
REMARK    7  A    between atoms: C_16  and  C_18
REMARK    8  A    between atoms: C_20  and  C_21
REMARK    9  A    between atoms: C_29  and  C_30
REMARK                            x       y       z     vdW  Elec       q    Type
REMARK                         _______ _______ _______ _____ _____    ______ ____
ROOT
ATOM      1  N   UNL     1       0.282   1.052   0.106  0.00  0.00    -0.280 N 
ATOM      2  C   UNL     1      -0.852   1.365  -0.618  0.00  0.00    +0.267 C 
ATOM      3  O   UNL     1      -0.912   1.865  -1.735  0.00  0.00    -0.268 OA
ATOM      4  H   UNL     1       0.097   0.621   1.008  0.00  0.00    +0.155 HD
ENDROOT
BRANCH   1   9
ATOM      5  C   UNL     1       3.978   1.030   0.424  0.00  0.00    -0.033 A 
ATOM      6  C   UNL     1       4.353   1.654  -0.772  0.00  0.00    -0.057 A 
ATOM      7  C   UNL     1       3.389   2.074  -1.689  0.00  0.00    -0.060 A 
ATOM      8  C   UNL     1       2.031   1.883  -1.426  0.00  0.00    -0.040 A 
ATOM      9  C   UNL     1       1.627   1.267  -0.244  0.00  0.00    +0.034 A 
ATOM     10  C   UNL     1       2.603   0.837   0.668  0.00  0.00    -0.036 A 
ATOM     11  H   UNL     1       5.401   1.820  -1.014  0.00  0.00    +0.062 HD
ATOM     12  H   UNL     1       3.697   2.551  -2.616  0.00  0.00    +0.062 HD
ATOM     13  H   UNL     1       1.315   2.230  -2.164  0.00  0.00    +0.064 HD
ATOM     14  H   UNL     1       2.293   0.344   1.588  0.00  0.00    +0.064 HD
BRANCH   5  15
ATOM     15  C   UNL     1       4.995   0.555   1.448  0.00  0.00    +0.035 C 
ATOM     16  H   UNL     1       4.437   0.407   2.383  0.00  0.00    +0.046 HD
BRANCH  15  17
ATOM     17  C   UNL     1       6.066   1.587   1.819  0.00  0.00    -0.049 C 
ATOM     18  H   UNL     1       6.664   1.927   0.969  0.00  0.00    +0.024 HD
ATOM     19  H   UNL     1       5.587   2.479   2.239  0.00  0.00    +0.024 HD
ATOM     20  H   UNL     1       6.746   1.193   2.582  0.00  0.00    +0.024 HD
ENDBRANCH  15  17
BRANCH  15  21
ATOM     21  S   UNL     1       5.624  -1.121   1.091  0.00  0.00    -0.078 S 
BRANCH  21  22
ATOM     22  C   UNL     1       6.921  -0.907  -0.025  0.00  0.00    +0.192 A 
ATOM     23  N   UNL     1       7.274   0.188  -0.655  0.00  0.00    -0.123 NA
ATOM     24  N   UNL     1       8.401  -0.091  -1.395  0.00  0.00    -0.137 NA
ATOM     25  C   UNL     1       8.703  -1.353  -1.192  0.00  0.00    +0.120 A 
ATOM     26  N   UNL     1       7.783  -1.914  -0.358  0.00  0.00    -0.312 N 
ATOM     27  H   UNL     1       9.545  -1.884  -1.618  0.00  0.00    +0.105 HD
BRANCH  26  28
ATOM     28  C   UNL     1       7.763  -3.285   0.071  0.00  0.00    +0.015 C 
ATOM     29  H   UNL     1       8.588  -3.826  -0.401  0.00  0.00    +0.046 HD
ATOM     30  H   UNL     1       6.816  -3.735  -0.236  0.00  0.00    +0.046 HD
ATOM     31  H   UNL     1       7.874  -3.318   1.157  0.00  0.00    +0.046 HD
ENDBRANCH  26  28
ENDBRANCH  21  22
ENDBRANCH  15  21
ENDBRANCH   5  15
ENDBRANCH   1   9
BRANCH   2  32
ATOM     32  C   UNL     1      -2.118   1.011   0.105  0.00  0.00    +0.127 A 
ATOM     33  C   UNL     1      -3.345   1.241  -0.488  0.00  0.00    -0.019 A 
ATOM     34  C   UNL     1      -4.474   0.864   0.228  0.00  0.00    +0.041 A 
ATOM     35  C   UNL     1      -4.362   0.318   1.510  0.00  0.00    -0.019 A 
ATOM     36  C   UNL     1      -3.091   0.132   2.046  0.00  0.00    +0.145 A 
ATOM     37  N   UNL     1      -1.964   0.457   1.346  0.00  0.00    -0.238 NA
ATOM     38  H   UNL     1      -3.425   1.696  -1.469  0.00  0.00    +0.065 HD
ATOM     39  H   UNL     1      -5.252   0.065   2.083  0.00  0.00    +0.065 HD
BRANCH  34  40
ATOM     40  C   UNL     1      -5.804   1.106  -0.362  0.00  0.00    +0.247 C 
ATOM     41  O   UNL     1      -6.117   2.262  -0.618  0.00  0.00    -0.270 OA
ATOM     42  N   UNL     1      -6.620   0.017  -0.588  0.00  0.00    -0.298 N 
ATOM     43  C   UNL     1      -7.933   0.193  -1.183  0.00  0.00    +0.015 C 
ATOM     44  C   UNL     1      -8.547  -1.197  -1.138  0.00  0.00    -0.036 C 
ATOM     45  C   UNL     1      -7.336  -2.101  -1.334  0.00  0.00    -0.036 C 
ATOM     46  C   UNL     1      -6.246  -1.392  -0.545  0.00  0.00    +0.015 C 
ATOM     47  H   UNL     1      -8.512   0.943  -0.634  0.00  0.00    +0.046 HD
ATOM     48  H   UNL     1      -7.795   0.537  -2.215  0.00  0.00    +0.046 HD
ATOM     49  H   UNL     1      -9.319  -1.341  -1.896  0.00  0.00    +0.028 HD
ATOM     50  H   UNL     1      -8.988  -1.384  -0.152  0.00  0.00    +0.028 HD
ATOM     51  H   UNL     1      -7.065  -2.135  -2.397  0.00  0.00    +0.028 HD
ATOM     52  H   UNL     1      -7.507  -3.126  -0.990  0.00  0.00    +0.028 HD
ATOM     53  H   UNL     1      -5.250  -1.545  -0.967  0.00  0.00    +0.046 HD
ATOM     54  H   UNL     1      -6.250  -1.712   0.500  0.00  0.00    +0.046 HD
ENDBRANCH  34  40
BRANCH  36  55
ATOM     55  C   UNL     1      -2.966  -0.447   3.450  0.00  0.00    +0.434 C 
ATOM     56  F   UNL     1      -3.440  -1.724   3.526  0.00  0.00    -0.164 F 
ATOM     57  F   UNL     1      -3.676   0.264   4.371  0.00  0.00    -0.164 F 
ATOM     58  F   UNL     1      -1.686  -0.495   3.916  0.00  0.00    -0.164 F 
ENDBRANCH  36  55
ENDBRANCH   2  32
TORSDOF 9
