REMARK  Name = 
REMARK  7 active torsions:
REMARK  status: ('A' for Active; 'I' for Inactive)
REMARK    1  A    between atoms: C_1  and  C_2
REMARK    2  A    between atoms: C_2  and  C_3
REMARK    3  A    between atoms: C_2  and  C_10
REMARK    4  A    between atoms: C_3  and  C_4
REMARK    5  A    between atoms: N_8  and  C_9
REMARK    6  A    between atoms: C_18  and  N_19
REMARK    7  A    between atoms: C_26  and  C_27
REMARK                            x       y       z     vdW  Elec       q    Type
REMARK                         _______ _______ _______ _____ _____    ______ ____
ROOT
ATOM      1  C   UNL     1      -1.557   0.394  -0.780  0.00  0.00    -0.002 A 
ATOM      2  C   UNL     1      -1.244   1.748  -0.914  0.00  0.00    -0.015 A 
ATOM      3  C   UNL     1       0.031   2.200  -0.585  0.00  0.00    +0.124 A 
ATOM      4  N   UNL     1       0.360   3.557  -0.733  0.00  0.00    -0.315 N 
ATOM      5  C   UNL     1       1.460   4.208  -0.077  0.00  0.00    +0.015 C 
ATOM      6  C   UNL     1       0.764   5.531  -0.416  0.00  0.00    -0.021 C 
ATOM      7  C   UNL     1      -0.508   4.683  -0.546  0.00  0.00    +0.015 C 
ATOM      8  N   UNL     1       0.985   1.352  -0.140  0.00  0.00    -0.214 NA
ATOM      9  C   UNL     1       0.704   0.030   0.013  0.00  0.00    +0.166 A 
ATOM     10  C   UNL     1      -0.563  -0.466  -0.292  0.00  0.00    +0.167 A 
ATOM     11  F   UNL     1      -0.896  -1.751  -0.127  0.00  0.00    -0.202 F 
ATOM     12  H   UNL     1      -1.982   2.456  -1.275  0.00  0.00    +0.066 HD
ATOM     13  H   UNL     1       1.519   3.976   0.991  0.00  0.00    +0.046 HD
ATOM     14  H   UNL     1       2.422   4.036  -0.566  0.00  0.00    +0.046 HD
ATOM     15  H   UNL     1       1.099   5.989  -1.353  0.00  0.00    +0.030 HD
ATOM     16  H   UNL     1       0.758   6.282   0.378  0.00  0.00    +0.030 HD
ATOM     17  H   UNL     1      -1.113   4.611   0.364  0.00  0.00    +0.046 HD
ATOM     18  H   UNL     1      -1.134   4.903  -1.413  0.00  0.00    +0.046 HD
ENDROOT
BRANCH   9  19
ATOM     19  N   UNL     1       1.778  -0.754   0.494  0.00  0.00    -0.245 N 
ATOM     20  C   UNL     1       3.059  -0.107   0.745  0.00  0.00    +0.048 C 
ATOM     21  C   UNL     1       3.927  -1.235   1.203  0.00  0.00    -0.006 A 
ATOM     22  C   UNL     1       3.187  -2.413   1.211  0.00  0.00    +0.042 A 
ATOM     23  C   UNL     1       3.730  -3.628   1.586  0.00  0.00    -0.049 A 
ATOM     24  C   UNL     1       5.072  -3.647   1.965  0.00  0.00    -0.060 A 
ATOM     25  C   UNL     1       5.833  -2.462   1.962  0.00  0.00    -0.050 A 
ATOM     26  C   UNL     1       5.268  -1.231   1.578  0.00  0.00    +0.060 A 
ATOM     27  C   UNL     1       1.817  -2.115   0.763  0.00  0.00    +0.253 C 
ATOM     28  O   UNL     1       0.975  -2.987   0.687  0.00  0.00    -0.270 OA
ATOM     29  H   UNL     1       2.948   0.645   1.534  0.00  0.00    +0.052 HD
ATOM     30  H   UNL     1       3.445   0.328  -0.183  0.00  0.00    +0.052 HD
ATOM     31  H   UNL     1       3.128  -4.532   1.583  0.00  0.00    +0.063 HD
ATOM     32  H   UNL     1       5.535  -4.585   2.266  0.00  0.00    +0.062 HD
ATOM     33  H   UNL     1       6.880  -2.512   2.264  0.00  0.00    +0.062 HD
BRANCH  26  34
ATOM     34  C   UNL     1       6.072   0.041   1.570  0.00  0.00    +0.418 C 
ATOM     35  F   UNL     1       5.537   0.993   2.384  0.00  0.00    -0.166 F 
ATOM     36  F   UNL     1       6.136   0.603   0.332  0.00  0.00    -0.166 F 
ATOM     37  F   UNL     1       7.359  -0.121   1.978  0.00  0.00    -0.166 F 
ENDBRANCH  26  34
ENDBRANCH   9  19
BRANCH   1  38
ATOM     38  C   UNL     1      -2.935  -0.173  -1.088  0.00  0.00    -0.009 C 
ATOM     39  H   UNL     1      -2.798  -1.222  -1.385  0.00  0.00    +0.035 HD
BRANCH  38  40
ATOM     40  C   UNL     1      -3.618   0.501  -2.288  0.00  0.00    -0.058 C 
ATOM     41  H   UNL     1      -4.520  -0.047  -2.580  0.00  0.00    +0.024 HD
ATOM     42  H   UNL     1      -2.952   0.523  -3.157  0.00  0.00    +0.024 HD
ATOM     43  H   UNL     1      -3.918   1.530  -2.066  0.00  0.00    +0.024 HD
ENDBRANCH  38  40
BRANCH  38  44
ATOM     44  C   UNL     1      -3.806  -0.114   0.182  0.00  0.00    +0.014 C 
ATOM     45  H   UNL     1      -3.220  -0.387   1.068  0.00  0.00    +0.035 HD
ATOM     46  H   UNL     1      -4.141   0.916   0.357  0.00  0.00    +0.035 HD
BRANCH  44  47
ATOM     47  C   UNL     1      -4.995  -1.007   0.098  0.00  0.00    +0.134 A 
ATOM     48  N   UNL     1      -6.209  -0.655  -0.274  0.00  0.00    -0.135 NA
ATOM     49  N   UNL     1      -7.016  -1.765  -0.206  0.00  0.00    -0.138 NA
ATOM     50  C   UNL     1      -6.279  -2.769   0.210  0.00  0.00    +0.120 A 
ATOM     51  N   UNL     1      -5.002  -2.343   0.409  0.00  0.00    -0.320 N 
ATOM     52  H   UNL     1      -6.616  -3.784   0.372  0.00  0.00    +0.105 HD
BRANCH  51  53
ATOM     53  C   UNL     1      -3.895  -3.154   0.845  0.00  0.00    +0.014 C 
ATOM     54  H   UNL     1      -3.432  -2.684   1.716  0.00  0.00    +0.046 HD
ATOM     55  H   UNL     1      -3.180  -3.236   0.024  0.00  0.00    +0.046 HD
ATOM     56  H   UNL     1      -4.258  -4.148   1.118  0.00  0.00    +0.046 HD
ENDBRANCH  51  53
ENDBRANCH  44  47
ENDBRANCH  38  44
ENDBRANCH   1  38
TORSDOF 7
