REMARK  Name = 
REMARK  4 active torsions:
REMARK  status: ('A' for Active; 'I' for Inactive)
REMARK    1  A    between atoms: C_1  and  C_2
REMARK    2  A    between atoms: C_5  and  C_6
REMARK    3  A    between atoms: N_8  and  C_9
REMARK    4  A    between atoms: C_13  and  C_14
REMARK                            x       y       z     vdW  Elec       q    Type
REMARK                         _______ _______ _______ _____ _____    ______ ____
ROOT
ATOM      1  C   UNL     1      -0.536  -0.606   1.466  0.00  0.00    +0.126 A 
ATOM      2  C   UNL     1      -0.454  -1.046   2.781  0.00  0.00    -0.021 A 
ATOM      3  C   UNL     1       0.801  -1.205   3.357  0.00  0.00    -0.056 A 
ATOM      4  C   UNL     1       1.936  -0.912   2.608  0.00  0.00    -0.036 A 
ATOM      5  C   UNL     1       1.789  -0.459   1.299  0.00  0.00    +0.073 A 
ATOM      6  N   UNL     1       0.559  -0.317   0.744  0.00  0.00    -0.232 NA
ATOM      7  H   UNL     1      -1.345  -1.275   3.356  0.00  0.00    +0.065 HD
ATOM      8  H   UNL     1       0.894  -1.559   4.380  0.00  0.00    +0.062 HD
ATOM      9  H   UNL     1       2.914  -1.057   3.052  0.00  0.00    +0.064 HD
ENDROOT
BRANCH   5  10
ATOM     10  C   UNL     1       2.931  -0.115   0.415  0.00  0.00    +0.001 A 
ATOM     11  C   UNL     1       2.762  -0.099  -0.996  0.00  0.00    -0.049 A 
ATOM     12  C   UNL     1       3.808   0.218  -1.871  0.00  0.00    -0.019 A 
ATOM     13  C   UNL     1       5.033   0.516  -1.324  0.00  0.00    +0.124 A 
ATOM     14  C   UNL     1       5.235   0.525   0.044  0.00  0.00    -0.002 A 
ATOM     15  C   UNL     1       4.203   0.224   0.923  0.00  0.00    -0.046 A 
ATOM     16  C   UNL     1       6.618   0.966   0.328  0.00  0.00    +0.010 C 
ATOM     17  C   UNL     1       7.213   0.810  -1.073  0.00  0.00    +0.094 C 
ATOM     18  O   UNL     1       6.146   0.855  -2.049  0.00  0.00    -0.491 OA
ATOM     19  H   UNL     1       1.784  -0.332  -1.421  0.00  0.00    +0.063 HD
ATOM     20  H   UNL     1       3.653   0.230  -2.944  0.00  0.00    +0.065 HD
ATOM     21  H   UNL     1       4.390   0.280   1.990  0.00  0.00    +0.063 HD
ATOM     22  H   UNL     1       7.139   0.347   1.063  0.00  0.00    +0.035 HD
ATOM     23  H   UNL     1       6.625   2.014   0.645  0.00  0.00    +0.035 HD
ATOM     24  H   UNL     1       7.939   1.599  -1.292  0.00  0.00    +0.070 HD
ATOM     25  H   UNL     1       7.722  -0.157  -1.180  0.00  0.00    +0.070 HD
ENDBRANCH   5  10
BRANCH   1  28
ATOM     26  C   UNL     1      -2.105  -0.089  -0.374  0.00  0.00    +0.255 C 
ATOM     27  O   UNL     1      -1.296   0.178  -1.258  0.00  0.00    -0.270 OA
ATOM     28  N   UNL     1      -1.815  -0.472   0.916  0.00  0.00    -0.266 N 
ATOM     29  H   UNL     1      -2.597  -0.685   1.530  0.00  0.00    +0.157 HD
BRANCH  26  33
ATOM     30  C   UNL     1      -6.315   0.164  -1.374  0.00  0.00    +0.016 A 
ATOM     31  C   UNL     1      -5.360   0.459  -2.268  0.00  0.00    -0.042 A 
ATOM     32  C   UNL     1      -3.965   0.364  -1.903  0.00  0.00    -0.043 A 
ATOM     33  C   UNL     1      -3.575  -0.018  -0.672  0.00  0.00    +0.101 A 
ATOM     34  C   UNL     1      -4.643  -0.346   0.321  0.00  0.00    +0.261 A 
ATOM     35  O   UNL     1      -4.377  -0.704   1.467  0.00  0.00    -0.267 OA
ATOM     36  N   UNL     1      -5.945  -0.229  -0.108  0.00  0.00    -0.326 N 
ATOM     37  H   UNL     1      -5.599   0.774  -3.280  0.00  0.00    +0.063 HD
ATOM     38  H   UNL     1      -3.236   0.617  -2.671  0.00  0.00    +0.063 HD
ATOM     39  H   UNL     1      -6.656  -0.456   0.578  0.00  0.00    +0.169 HD
BRANCH  30  40
ATOM     40  C   UNL     1      -7.781   0.236  -1.668  0.00  0.00    -0.024 C 
ATOM     41  H   UNL     1      -8.271   0.949  -0.997  0.00  0.00    +0.029 HD
ATOM     42  H   UNL     1      -7.975   0.557  -2.697  0.00  0.00    +0.029 HD
ATOM     43  H   UNL     1      -8.247  -0.746  -1.530  0.00  0.00    +0.029 HD
ENDBRANCH  30  40
ENDBRANCH  26  33
ENDBRANCH   1  28
TORSDOF 4
