REMARK  Name = 
REMARK  6 active torsions:
REMARK  status: ('A' for Active; 'I' for Inactive)
REMARK    1  A    between atoms: C_1  and  C_2
REMARK    2  A    between atoms: C_4  and  C_5
REMARK    3  A    between atoms: C_5  and  O_6
REMARK    4  A    between atoms: O_6  and  C_7
REMARK    5  A    between atoms: C_11  and  C_12
REMARK    6  A    between atoms: C_19  and  C_20
REMARK                            x       y       z     vdW  Elec       q    Type
REMARK                         _______ _______ _______ _____ _____    ______ ____
ROOT
ATOM      1  C   UNL     1      -1.306  -0.223   0.562  0.00  0.00    +0.247 C 
ATOM      2  O   UNL     1      -1.526  -0.252   1.772  0.00  0.00    -0.270 OA
ATOM      3  N   UNL     1      -2.309  -0.180  -0.415  0.00  0.00    -0.290 N 
ATOM      4  C   UNL     1      -2.117  -0.741  -1.755  0.00  0.00    +0.016 C 
ATOM      5  C   UNL     1      -3.047  -0.103  -2.778  0.00  0.00    -0.037 C 
ATOM      6  C   UNL     1      -4.518  -0.163  -2.368  0.00  0.00    -0.050 C 
ATOM      7  C   UNL     1      -4.724  -0.620  -0.925  0.00  0.00    -0.030 C 
ATOM      8  C   UNL     1      -3.692  -0.047   0.060  0.00  0.00    +0.054 C 
ATOM      9  H   UNL     1      -2.305  -1.820  -1.684  0.00  0.00    +0.046 HD
ATOM     10  H   UNL     1      -1.083  -0.634  -2.092  0.00  0.00    +0.046 HD
ATOM     11  H   UNL     1      -2.757   0.945  -2.922  0.00  0.00    +0.028 HD
ATOM     12  H   UNL     1      -2.916  -0.589  -3.752  0.00  0.00    +0.028 HD
ATOM     13  H   UNL     1      -4.974   0.823  -2.519  0.00  0.00    +0.027 HD
ATOM     14  H   UNL     1      -5.058  -0.846  -3.035  0.00  0.00    +0.027 HD
ATOM     15  H   UNL     1      -5.747  -0.384  -0.605  0.00  0.00    +0.029 HD
ATOM     16  H   UNL     1      -4.644  -1.716  -0.905  0.00  0.00    +0.029 HD
ATOM     17  H   UNL     1      -3.786  -0.632   0.985  0.00  0.00    +0.055 HD
ENDROOT
BRANCH   1  22
ATOM     18  C   UNL     1       2.296  -1.252   0.164  0.00  0.00    +0.122 A 
ATOM     19  C   UNL     1       2.782  -0.215  -0.637  0.00  0.00    -0.020 A 
ATOM     20  C   UNL     1       1.936   0.825  -1.042  0.00  0.00    -0.058 A 
ATOM     21  C   UNL     1       0.596   0.828  -0.658  0.00  0.00    -0.049 A 
ATOM     22  C   UNL     1       0.106  -0.220   0.126  0.00  0.00    +0.040 A 
ATOM     23  C   UNL     1       0.955  -1.242   0.556  0.00  0.00    -0.008 A 
ATOM     24  H   UNL     1       3.822  -0.163  -0.943  0.00  0.00    +0.065 HD
ATOM     25  H   UNL     1       2.330   1.640  -1.643  0.00  0.00    +0.062 HD
ATOM     26  H   UNL     1      -0.055   1.647  -0.951  0.00  0.00    +0.063 HD
ATOM     27  H   UNL     1       0.572  -2.029   1.202  0.00  0.00    +0.066 HD
BRANCH  18  28
ATOM     28  O   UNL     1       3.017  -2.309   0.643  0.00  0.00    -0.484 OA
BRANCH  28  29
ATOM     29  C   UNL     1       4.346  -2.518   0.141  0.00  0.00    +0.152 C 
ATOM     30  H   UNL     1       4.376  -2.391  -0.949  0.00  0.00    +0.078 HD
ATOM     31  H   UNL     1       4.567  -3.577   0.321  0.00  0.00    +0.078 HD
BRANCH  29  34
ATOM     32  C   UNL     1       6.378  -0.389   2.114  0.00  0.00    +0.224 A 
ATOM     33  N   UNL     1       5.179  -0.867   1.872  0.00  0.00    -0.193 NA
ATOM     34  C   UNL     1       5.411  -1.718   0.817  0.00  0.00    +0.209 A 
ATOM     35  N   UNL     1       6.691  -1.770   0.414  0.00  0.00    -0.058 NA
ATOM     36  O   UNL     1       7.337  -0.886   1.281  0.00  0.00    -0.338 OA
BRANCH  32  37
ATOM     37  C   UNL     1       6.819   0.577   3.134  0.00  0.00    +0.015 C 
ATOM     38  H   UNL     1       5.963   0.964   3.696  0.00  0.00    +0.032 HD
ATOM     39  H   UNL     1       7.505   0.100   3.841  0.00  0.00    +0.032 HD
ATOM     40  H   UNL     1       7.333   1.423   2.668  0.00  0.00    +0.032 HD
ENDBRANCH  32  37
ENDBRANCH  29  34
ENDBRANCH  28  29
ENDBRANCH  18  28
ENDBRANCH   1  22
BRANCH   8  41
ATOM     41  C   UNL     1      -3.961   1.393   0.404  0.00  0.00    +0.010 A 
ATOM     42  C   UNL     1      -3.734   2.558  -0.366  0.00  0.00    +0.054 A 
ATOM     43  N   UNL     1      -4.096   3.680   0.263  0.00  0.00    -0.182 NA
ATOM     44  N   UNL     1      -4.525   3.244   1.457  0.00  0.00    -0.284 N 
ATOM     45  C   UNL     1      -4.485   1.887   1.583  0.00  0.00    +0.027 A 
ATOM     46  H   UNL     1      -3.319   2.638  -1.361  0.00  0.00    +0.085 HD
ATOM     47  H   UNL     1      -4.832   3.929   2.140  0.00  0.00    +0.188 HD
ATOM     48  H   UNL     1      -4.799   1.397   2.494  0.00  0.00    +0.083 HD
ENDBRANCH   8  41
TORSDOF 6
