REMARK  Name = 
REMARK  6 active torsions:
REMARK  status: ('A' for Active; 'I' for Inactive)
REMARK    1  A    between atoms: C_1  and  C_2
REMARK    2  A    between atoms: C_4  and  C_5
REMARK    3  A    between atoms: C_8  and  C_9
REMARK    4  A    between atoms: C_9  and  C_10
REMARK    5  A    between atoms: C_10  and  N_11
REMARK    6  A    between atoms: C_18  and  C_19
REMARK                            x       y       z     vdW  Elec       q    Type
REMARK                         _______ _______ _______ _____ _____    ______ ____
ROOT
ATOM      1  C   UNL     1      -0.359   0.220  -1.322  0.00  0.00    +0.080 A 
ATOM      2  C   UNL     1      -0.204   0.011  -2.676  0.00  0.00    +0.003 A 
ATOM      3  S   UNL     1       1.451   0.134  -3.103  0.00  0.00    -0.080 S 
ATOM      4  C   UNL     1       1.833   0.479  -1.464  0.00  0.00    +0.080 A 
ATOM      5  N   UNL     1       0.810   0.506  -0.636  0.00  0.00    -0.244 NA
ATOM      6  H   UNL     1      -0.957  -0.191  -3.423  0.00  0.00    +0.072 HD
ENDROOT
BRANCH   1   9
ATOM      7  C   UNL     1      -3.090   0.784   1.050  0.00  0.00    +0.024 A 
ATOM      8  C   UNL     1      -1.801   0.985   0.594  0.00  0.00    -0.031 A 
ATOM      9  C   UNL     1      -1.617   0.215  -0.567  0.00  0.00    +0.022 A 
ATOM     10  C   UNL     1      -2.784  -0.498  -0.782  0.00  0.00    +0.033 A 
ATOM     11  N   UNL     1      -3.738  -0.089   0.167  0.00  0.00    -0.287 N 
ATOM     12  C   UNL     1      -5.085  -0.499   0.186  0.00  0.00    +0.231 A 
ATOM     13  N   UNL     1      -5.651  -1.300  -0.696  0.00  0.00    -0.199 NA
ATOM     14  C   UNL     1      -6.943  -1.385  -0.267  0.00  0.00    +0.140 A 
ATOM     15  N   UNL     1      -7.221  -0.680   0.830  0.00  0.00    -0.159 NA
ATOM     16  N   UNL     1      -6.027  -0.122   1.095  0.00  0.00    -0.244 N 
ATOM     17  H   UNL     1      -1.063   1.630   1.056  0.00  0.00    +0.064 HD
ATOM     18  H   UNL     1      -7.699  -1.977  -0.768  0.00  0.00    +0.107 HD
ATOM     19  H   UNL     1      -5.955   0.488   1.898  0.00  0.00    +0.192 HD
BRANCH   7  20
ATOM     20  C   UNL     1      -3.683   1.403   2.266  0.00  0.00    -0.024 C 
ATOM     21  H   UNL     1      -2.932   1.989   2.809  0.00  0.00    +0.029 HD
ATOM     22  H   UNL     1      -4.051   0.639   2.958  0.00  0.00    +0.029 HD
ATOM     23  H   UNL     1      -4.493   2.089   2.001  0.00  0.00    +0.029 HD
ENDBRANCH   7  20
BRANCH  10  24
ATOM     24  C   UNL     1      -3.072  -1.549  -1.806  0.00  0.00    -0.023 C 
ATOM     25  H   UNL     1      -3.526  -2.433  -1.348  0.00  0.00    +0.029 HD
ATOM     26  H   UNL     1      -3.733  -1.158  -2.586  0.00  0.00    +0.029 HD
ATOM     27  H   UNL     1      -2.157  -1.904  -2.288  0.00  0.00    +0.029 HD
ENDBRANCH  10  24
ENDBRANCH   1   9
BRANCH   4  28
ATOM     28  C   UNL     1       3.248   0.723  -1.044  0.00  0.00    +0.012 C 
ATOM     29  H   UNL     1       3.260   1.556  -0.331  0.00  0.00    +0.035 HD
ATOM     30  H   UNL     1       3.863   1.041  -1.894  0.00  0.00    +0.035 HD
BRANCH  28  31
ATOM     31  C   UNL     1       3.841  -0.529  -0.395  0.00  0.00    +0.024 C 
ATOM     32  H   UNL     1       3.222  -0.881   0.439  0.00  0.00    +0.047 HD
ATOM     33  H   UNL     1       3.882  -1.337  -1.136  0.00  0.00    +0.047 HD
BRANCH  31  34
ATOM     34  N   UNL     1       5.191  -0.328   0.107  0.00  0.00    -0.264 N 
ATOM     35  C   UNL     1       5.463   0.325   1.349  0.00  0.00    +0.052 C 
ATOM     36  C   UNL     1       6.971   0.300   1.381  0.00  0.00    +0.110 C 
ATOM     37  O   UNL     1       7.358   0.244   0.002  0.00  0.00    -0.449 OA
ATOM     38  C   UNL     1       6.287  -0.214  -0.718  0.00  0.00    +0.403 C 
ATOM     39  O   UNL     1       6.316  -0.441  -1.916  0.00  0.00    -0.226 OA
ATOM     40  H   UNL     1       5.004  -0.199   2.192  0.00  0.00    +0.050 HD
ATOM     41  H   UNL     1       5.089   1.352   1.296  0.00  0.00    +0.050 HD
ATOM     42  H   UNL     1       7.361  -0.593   1.882  0.00  0.00    +0.071 HD
ATOM     43  H   UNL     1       7.392   1.190   1.856  0.00  0.00    +0.071 HD
ENDBRANCH  31  34
ENDBRANCH  28  31
ENDBRANCH   4  28
TORSDOF 6
