REMARK  Name = 
REMARK  8 active torsions:
REMARK  status: ('A' for Active; 'I' for Inactive)
REMARK    1  A    between atoms: C_1  and  C_2
REMARK    2  A    between atoms: C_2  and  C_3
REMARK    3  A    between atoms: C_2  and  C_10
REMARK    4  A    between atoms: C_3  and  C_4
REMARK    5  A    between atoms: N_8  and  C_9
REMARK    6  A    between atoms: N_13  and  C_14
REMARK    7  A    between atoms: C_19  and  N_21
REMARK    8  A    between atoms: C_28  and  C_29
REMARK                            x       y       z     vdW  Elec       q    Type
REMARK                         _______ _______ _______ _____ _____    ______ ____
ROOT
ATOM      1  C   UNL     1      -1.548  -0.645  -0.946  0.00  0.00    -0.038 A 
ATOM      2  C   UNL     1      -1.791   0.723  -0.807  0.00  0.00    -0.018 A 
ATOM      3  C   UNL     1      -0.727   1.592  -0.593  0.00  0.00    +0.121 A 
ATOM      4  N   UNL     1      -1.006   2.970  -0.430  0.00  0.00    -0.326 N 
ATOM      5  N   UNL     1       0.540   1.152  -0.483  0.00  0.00    -0.217 NA
ATOM      6  C   UNL     1       0.793  -0.172  -0.606  0.00  0.00    +0.130 A 
ATOM      7  C   UNL     1      -0.225  -1.089  -0.840  0.00  0.00    -0.018 A 
ATOM      8  H   UNL     1      -2.801   1.117  -0.852  0.00  0.00    +0.065 HD
ATOM      9  H   UNL     1      -1.606   3.258  -1.198  0.00  0.00    +0.148 HD
ATOM     10  H   UNL     1      -0.014  -2.149  -0.936  0.00  0.00    +0.065 HD
ENDROOT
BRANCH   6  11
ATOM     11  N   UNL     1       2.140  -0.560  -0.476  0.00  0.00    -0.248 N 
ATOM     12  C   UNL     1       3.156   0.451  -0.236  0.00  0.00    +0.048 C 
ATOM     13  C   UNL     1       4.416  -0.354  -0.161  0.00  0.00    -0.006 A 
ATOM     14  C   UNL     1       4.118  -1.702  -0.340  0.00  0.00    +0.042 A 
ATOM     15  C   UNL     1       5.086  -2.689  -0.320  0.00  0.00    -0.049 A 
ATOM     16  C   UNL     1       6.406  -2.290  -0.110  0.00  0.00    -0.060 A 
ATOM     17  C   UNL     1       6.723  -0.931   0.073  0.00  0.00    -0.050 A 
ATOM     18  C   UNL     1       5.727   0.064   0.050  0.00  0.00    +0.060 A 
ATOM     19  C   UNL     1       2.668  -1.841  -0.538  0.00  0.00    +0.253 C 
ATOM     20  O   UNL     1       2.134  -2.919  -0.713  0.00  0.00    -0.270 OA
ATOM     21  H   UNL     1       3.188   1.152  -1.076  0.00  0.00    +0.052 HD
ATOM     22  H   UNL     1       2.959   0.960   0.713  0.00  0.00    +0.052 HD
ATOM     23  H   UNL     1       4.822  -3.732  -0.463  0.00  0.00    +0.063 HD
ATOM     24  H   UNL     1       7.198  -3.037  -0.088  0.00  0.00    +0.062 HD
ATOM     25  H   UNL     1       7.766  -0.655   0.235  0.00  0.00    +0.062 HD
BRANCH  18  26
ATOM     26  C   UNL     1       6.056   1.520   0.246  0.00  0.00    +0.418 C 
ATOM     27  F   UNL     1       5.679   2.282  -0.816  0.00  0.00    -0.166 F 
ATOM     28  F   UNL     1       7.383   1.762   0.430  0.00  0.00    -0.166 F 
ATOM     29  F   UNL     1       5.424   2.050   1.329  0.00  0.00    -0.166 F 
ENDBRANCH  18  26
ENDBRANCH   6  11
BRANCH   4  30
ATOM     30  C   UNL     1       0.047   3.928  -0.204  0.00  0.00    +0.022 C 
ATOM     31  C   UNL     1      -0.516   5.338   0.093  0.00  0.00    -0.034 C 
ATOM     32  C   UNL     1      -0.461   4.992   1.595  0.00  0.00    -0.050 C 
ATOM     33  C   UNL     1       0.584   3.913   1.247  0.00  0.00    -0.034 C 
ATOM     34  H   UNL     1       0.803   3.901  -0.995  0.00  0.00    +0.050 HD
ATOM     35  H   UNL     1       0.169   6.146  -0.193  0.00  0.00    +0.028 HD
ATOM     36  H   UNL     1      -1.509   5.570  -0.301  0.00  0.00    +0.028 HD
ATOM     37  H   UNL     1      -1.400   4.586   1.988  0.00  0.00    +0.027 HD
ATOM     38  H   UNL     1      -0.116   5.792   2.254  0.00  0.00    +0.027 HD
ATOM     39  H   UNL     1       1.620   4.266   1.327  0.00  0.00    +0.028 HD
ATOM     40  H   UNL     1       0.495   2.979   1.809  0.00  0.00    +0.028 HD
ENDBRANCH   4  30
BRANCH   1  41
ATOM     41  C   UNL     1      -2.672  -1.652  -1.162  0.00  0.00    -0.012 C 
ATOM     42  H   UNL     1      -2.216  -2.614  -1.437  0.00  0.00    +0.035 HD
BRANCH  41  43
ATOM     43  C   UNL     1      -3.569  -1.237  -2.338  0.00  0.00    -0.058 C 
ATOM     44  H   UNL     1      -4.150  -0.336  -2.112  0.00  0.00    +0.024 HD
ATOM     45  H   UNL     1      -4.281  -2.028  -2.594  0.00  0.00    +0.024 HD
ATOM     46  H   UNL     1      -2.970  -1.034  -3.233  0.00  0.00    +0.024 HD
ENDBRANCH  41  43
BRANCH  41  47
ATOM     47  C   UNL     1      -3.464  -1.833   0.149  0.00  0.00    +0.014 C 
ATOM     48  H   UNL     1      -4.039  -0.923   0.365  0.00  0.00    +0.035 HD
ATOM     49  H   UNL     1      -2.761  -1.965   0.983  0.00  0.00    +0.035 HD
BRANCH  47  50
ATOM     50  C   UNL     1      -4.386  -3.007   0.146  0.00  0.00    +0.134 A 
ATOM     51  N   UNL     1      -4.496  -3.944  -0.774  0.00  0.00    -0.135 NA
ATOM     52  N   UNL     1      -5.463  -4.834  -0.372  0.00  0.00    -0.138 NA
ATOM     53  C   UNL     1      -5.915  -4.431   0.791  0.00  0.00    +0.120 A 
ATOM     54  N   UNL     1      -5.268  -3.293   1.157  0.00  0.00    -0.320 N 
ATOM     55  H   UNL     1      -6.681  -4.916   1.379  0.00  0.00    +0.105 HD
BRANCH  54  56
ATOM     56  C   UNL     1      -5.473  -2.551   2.371  0.00  0.00    +0.014 C 
ATOM     57  H   UNL     1      -6.189  -3.078   3.007  0.00  0.00    +0.046 HD
ATOM     58  H   UNL     1      -5.865  -1.564   2.113  0.00  0.00    +0.046 HD
ATOM     59  H   UNL     1      -4.518  -2.460   2.893  0.00  0.00    +0.046 HD
ENDBRANCH  54  56
ENDBRANCH  47  50
ENDBRANCH  41  47
ENDBRANCH   1  41
TORSDOF 8
