REMARK  Name = 
REMARK  4 active torsions:
REMARK  status: ('A' for Active; 'I' for Inactive)
REMARK    1  A    between atoms: C_1  and  C_2
REMARK    2  A    between atoms: C_7  and  C_9
REMARK    3  A    between atoms: N_12  and  C_13
REMARK    4  A    between atoms: C_17  and  C_18
REMARK                            x       y       z     vdW  Elec       q    Type
REMARK                         _______ _______ _______ _____ _____    ______ ____
ROOT
ATOM      1  C   UNL     1      -0.690  -0.769  -0.049  0.00  0.00    +0.039 C 
ATOM      2  C   UNL     1       0.117  -1.848   0.688  0.00  0.00    -0.026 C 
ATOM      3  C   UNL     1       1.467  -1.308   1.152  0.00  0.00    +0.013 C 
ATOM      4  N   UNL     1       2.212  -0.757   0.002  0.00  0.00    -0.330 N 
ATOM      5  C   UNL     1       1.493   0.292  -0.734  0.00  0.00    +0.013 C 
ATOM      6  C   UNL     1       0.145  -0.237  -1.220  0.00  0.00    -0.026 C 
ATOM      7  H   UNL     1      -0.893   0.028   0.675  0.00  0.00    +0.040 HD
ATOM      8  H   UNL     1      -0.449  -2.215   1.552  0.00  0.00    +0.029 HD
ATOM      9  H   UNL     1       0.283  -2.712   0.030  0.00  0.00    +0.029 HD
ATOM     10  H   UNL     1       1.319  -0.524   1.907  0.00  0.00    +0.046 HD
ATOM     11  H   UNL     1       2.003  -2.130   1.639  0.00  0.00    +0.046 HD
ATOM     12  H   UNL     1       1.336   1.171  -0.096  0.00  0.00    +0.046 HD
ATOM     13  H   UNL     1       2.067   0.605  -1.615  0.00  0.00    +0.046 HD
ATOM     14  H   UNL     1      -0.381   0.559  -1.756  0.00  0.00    +0.029 HD
ATOM     15  H   UNL     1       0.307  -1.041  -1.950  0.00  0.00    +0.029 HD
ENDROOT
BRANCH   1  21
ATOM     16  C   UNL     1      -4.099   1.354   0.277  0.00  0.00    -0.028 C 
ATOM     17  C   UNL     1      -5.452   0.762  -0.158  0.00  0.00    -0.048 C 
ATOM     18  C   UNL     1      -5.358  -0.721  -0.527  0.00  0.00    -0.037 C 
ATOM     19  C   UNL     1      -4.236  -0.961  -1.534  0.00  0.00    +0.015 C 
ATOM     20  N   UNL     1      -2.973  -0.429  -1.025  0.00  0.00    -0.301 N 
ATOM     21  C   UNL     1      -2.021  -1.328  -0.552  0.00  0.00    +0.219 C 
ATOM     22  O   UNL     1      -2.222  -2.544  -0.563  0.00  0.00    -0.275 OA
ATOM     23  C   UNL     1      -3.003   1.008  -0.746  0.00  0.00    +0.017 C 
ATOM     24  H   UNL     1      -4.201   2.446   0.308  0.00  0.00    +0.031 HD
ATOM     25  H   UNL     1      -5.811   1.317  -1.035  0.00  0.00    +0.027 HD
ATOM     26  H   UNL     1      -6.204   0.902   0.628  0.00  0.00    +0.027 HD
ATOM     27  H   UNL     1      -5.177  -1.315   0.377  0.00  0.00    +0.028 HD
ATOM     28  H   UNL     1      -6.312  -1.059  -0.947  0.00  0.00    +0.028 HD
ATOM     29  H   UNL     1      -4.159  -2.028  -1.762  0.00  0.00    +0.046 HD
ATOM     30  H   UNL     1      -4.454  -0.445  -2.477  0.00  0.00    +0.046 HD
ATOM     31  H   UNL     1      -3.214   1.512  -1.697  0.00  0.00    +0.047 HD
ATOM     32  H   UNL     1      -2.039   1.383  -0.400  0.00  0.00    +0.047 HD
BRANCH  16  33
ATOM     33  C   UNL     1      -3.716   0.901   1.689  0.00  0.00    -0.061 C 
ATOM     34  H   UNL     1      -2.777   1.370   2.001  0.00  0.00    +0.023 HD
ATOM     35  H   UNL     1      -3.586  -0.184   1.756  0.00  0.00    +0.023 HD
ATOM     36  H   UNL     1      -4.487   1.192   2.409  0.00  0.00    +0.023 HD
ENDBRANCH  16  33
ENDBRANCH   1  21
BRANCH   4  37
ATOM     37  C   UNL     1       3.582  -0.562   0.258  0.00  0.00    +0.033 A 
ATOM     38  C   UNL     1       4.384  -1.656   0.609  0.00  0.00    -0.022 A 
ATOM     39  C   UNL     1       5.735  -1.473   0.864  0.00  0.00    +0.030 A 
ATOM     40  N   UNL     1       6.354  -0.282   0.786  0.00  0.00    -0.250 NA
ATOM     41  C   UNL     1       5.583   0.770   0.426  0.00  0.00    +0.127 A 
ATOM     42  C   UNL     1       4.218   0.677   0.155  0.00  0.00    -0.010 A 
ATOM     43  H   UNL     1       3.968  -2.657   0.663  0.00  0.00    +0.065 HD
ATOM     44  H   UNL     1       6.370  -2.310   1.138  0.00  0.00    +0.083 HD
ATOM     45  H   UNL     1       3.669   1.577  -0.091  0.00  0.00    +0.066 HD
BRANCH  41  46
ATOM     46  C   UNL     1       6.279   2.092   0.321  0.00  0.00    +0.260 C 
ATOM     47  N   UNL     1       5.897   2.909  -0.718  0.00  0.00    -0.324 N 
ATOM     48  O   UNL     1       7.163   2.447   1.090  0.00  0.00    -0.269 OA
ATOM     49  H   UNL     1       6.504   3.707  -0.865  0.00  0.00    +0.145 HD
ATOM     50  H   UNL     1       5.460   2.514  -1.540  0.00  0.00    +0.145 HD
ENDBRANCH  41  46
ENDBRANCH   4  37
TORSDOF 4
