REMARK  Name = 
REMARK  9 active torsions:
REMARK  status: ('A' for Active; 'I' for Inactive)
REMARK    1  A    between atoms: C_1  and  C_2
REMARK    2  A    between atoms: C_2  and  C_3
REMARK    3  A    between atoms: C_2  and  C_10
REMARK    4  A    between atoms: C_3  and  C_4
REMARK    5  A    between atoms: N_8  and  C_9
REMARK    6  A    between atoms: C_14  and  N_15
REMARK    7  A    between atoms: C_16  and  C_18
REMARK    8  A    between atoms: C_20  and  C_21
REMARK    9  A    between atoms: C_26  and  O_27
REMARK                            x       y       z     vdW  Elec       q    Type
REMARK                         _______ _______ _______ _____ _____    ______ ____
ROOT
ATOM      1  C   UNL     1      -4.022  -0.102  -1.635  0.00  0.00    -0.042 A 
ATOM      2  C   UNL     1      -4.394   1.246  -1.705  0.00  0.00    -0.058 A 
ATOM      3  C   UNL     1      -3.424   2.247  -1.751  0.00  0.00    -0.060 A 
ATOM      4  C   UNL     1      -2.070   1.913  -1.716  0.00  0.00    -0.040 A 
ATOM      5  C   UNL     1      -1.669   0.577  -1.620  0.00  0.00    +0.034 A 
ATOM      6  C   UNL     1      -2.649  -0.419  -1.586  0.00  0.00    -0.037 A 
ATOM      7  H   UNL     1      -5.442   1.539  -1.721  0.00  0.00    +0.062 HD
ATOM      8  H   UNL     1      -3.727   3.289  -1.816  0.00  0.00    +0.062 HD
ATOM      9  H   UNL     1      -1.338   2.716  -1.754  0.00  0.00    +0.064 HD
ATOM     10  H   UNL     1      -2.369  -1.468  -1.537  0.00  0.00    +0.064 HD
ENDROOT
BRANCH   5  11
ATOM     11  N   UNL     1      -0.283   0.322  -1.566  0.00  0.00    -0.280 N 
ATOM     12  C   UNL     1       0.340  -0.906  -1.388  0.00  0.00    +0.267 C 
ATOM     13  O   UNL     1      -0.206  -1.988  -1.210  0.00  0.00    -0.268 OA
ATOM     14  H   UNL     1       0.314   1.128  -1.712  0.00  0.00    +0.155 HD
BRANCH  12  15
ATOM     15  C   UNL     1       1.834  -0.840  -1.393  0.00  0.00    +0.126 A 
ATOM     16  C   UNL     1       2.490   0.067  -0.579  0.00  0.00    -0.019 A 
ATOM     17  C   UNL     1       3.882   0.081  -0.628  0.00  0.00    +0.040 A 
ATOM     18  C   UNL     1       4.568  -0.767  -1.495  0.00  0.00    -0.031 A 
ATOM     19  C   UNL     1       3.820  -1.641  -2.262  0.00  0.00    +0.029 A 
ATOM     20  N   UNL     1       2.473  -1.701  -2.225  0.00  0.00    -0.250 NA
ATOM     21  H   UNL     1       1.951   0.734   0.086  0.00  0.00    +0.065 HD
ATOM     22  H   UNL     1       5.647  -0.737  -1.588  0.00  0.00    +0.064 HD
ATOM     23  H   UNL     1       4.295  -2.331  -2.955  0.00  0.00    +0.083 HD
BRANCH  17  24
ATOM     24  C   UNL     1       4.596   1.074   0.199  0.00  0.00    +0.247 C 
ATOM     25  O   UNL     1       4.222   2.241   0.133  0.00  0.00    -0.270 OA
ATOM     26  N   UNL     1       5.625   0.649   1.014  0.00  0.00    -0.295 N 
ATOM     27  C   UNL     1       5.968  -0.721   1.379  0.00  0.00    +0.017 C 
ATOM     28  C   UNL     1       6.724  -0.589   2.692  0.00  0.00    -0.010 C 
ATOM     29  C   UNL     1       7.402   0.772   2.567  0.00  0.00    +0.072 C 
ATOM     30  C   UNL     1       6.336   1.601   1.851  0.00  0.00    +0.041 C 
ATOM     31  H   UNL     1       6.619  -1.125   0.597  0.00  0.00    +0.047 HD
ATOM     32  H   UNL     1       5.075  -1.345   1.470  0.00  0.00    +0.047 HD
ATOM     33  H   UNL     1       6.029  -0.591   3.541  0.00  0.00    +0.031 HD
ATOM     34  H   UNL     1       7.436  -1.403   2.855  0.00  0.00    +0.031 HD
ATOM     35  H   UNL     1       8.310   0.690   1.959  0.00  0.00    +0.061 HD
ATOM     36  H   UNL     1       5.629   2.056   2.555  0.00  0.00    +0.049 HD
ATOM     37  H   UNL     1       6.768   2.399   1.239  0.00  0.00    +0.049 HD
BRANCH  29  38
ATOM     38  O   UNL     1       7.734   1.275   3.848  0.00  0.00    -0.390 OA
ATOM     39  H   UNL     1       8.108   2.166   3.730  0.00  0.00    +0.210 HD
ENDBRANCH  29  38
ENDBRANCH  17  24
ENDBRANCH  12  15
ENDBRANCH   5  11
BRANCH   1  40
ATOM     40  C   UNL     1      -5.040  -1.235  -1.585  0.00  0.00    -0.012 C 
ATOM     41  H   UNL     1      -4.604  -2.058  -2.171  0.00  0.00    +0.035 HD
BRANCH  40  42
ATOM     42  C   UNL     1      -6.374  -0.932  -2.282  0.00  0.00    -0.058 C 
ATOM     43  H   UNL     1      -7.003  -1.829  -2.310  0.00  0.00    +0.024 HD
ATOM     44  H   UNL     1      -6.945  -0.146  -1.779  0.00  0.00    +0.024 HD
ATOM     45  H   UNL     1      -6.207  -0.612  -3.317  0.00  0.00    +0.024 HD
ENDBRANCH  40  42
BRANCH  40  46
ATOM     46  C   UNL     1      -5.239  -1.782  -0.155  0.00  0.00    +0.014 C 
ATOM     47  H   UNL     1      -5.909  -2.650  -0.199  0.00  0.00    +0.035 HD
ATOM     48  H   UNL     1      -4.289  -2.169   0.230  0.00  0.00    +0.035 HD
BRANCH  46  49
ATOM     49  C   UNL     1      -5.826  -0.798   0.801  0.00  0.00    +0.134 A 
ATOM     50  N   UNL     1      -7.111  -0.525   0.932  0.00  0.00    -0.135 NA
ATOM     51  N   UNL     1      -7.253   0.435   1.904  0.00  0.00    -0.138 NA
ATOM     52  C   UNL     1      -6.056   0.721   2.355  0.00  0.00    +0.120 A 
ATOM     53  N   UNL     1      -5.129  -0.033   1.702  0.00  0.00    -0.320 N 
ATOM     54  H   UNL     1      -5.821   1.439   3.127  0.00  0.00    +0.105 HD
BRANCH  53  55
ATOM     55  C   UNL     1      -3.713   0.005   1.947  0.00  0.00    +0.014 C 
ATOM     56  H   UNL     1      -3.268   0.757   1.292  0.00  0.00    +0.046 HD
ATOM     57  H   UNL     1      -3.540   0.280   2.991  0.00  0.00    +0.046 HD
ATOM     58  H   UNL     1      -3.272  -0.976   1.764  0.00  0.00    +0.046 HD
ENDBRANCH  53  55
ENDBRANCH  46  49
ENDBRANCH  40  46
ENDBRANCH   1  40
TORSDOF 9
