REMARK  Name = 
REMARK  4 active torsions:
REMARK  status: ('A' for Active; 'I' for Inactive)
REMARK    1  A    between atoms: C_2  and  C_4
REMARK    2  A    between atoms: C_7  and  N_8
REMARK    3  A    between atoms: C_9  and  C_11
REMARK    4  A    between atoms: C_13  and  C_14
REMARK                            x       y       z     vdW  Elec       q    Type
REMARK                         _______ _______ _______ _____ _____    ______ ____
ROOT
ATOM      1  C   UNL     1      -1.026   0.569   0.260  0.00  0.00    +0.048 A 
ATOM      2  C   UNL     1      -2.028  -0.329   0.634  0.00  0.00    -0.023 A 
ATOM      3  C   UNL     1      -3.241  -0.283  -0.029  0.00  0.00    +0.074 A 
ATOM      4  N   UNL     1      -3.454   0.602  -1.034  0.00  0.00    -0.247 NA
ATOM      5  C   UNL     1      -2.504   1.492  -1.368  0.00  0.00    +0.072 A 
ATOM      6  C   UNL     1      -2.782   2.406  -2.376  0.00  0.00    -0.036 A 
ATOM      7  C   UNL     1      -1.859   3.377  -2.770  0.00  0.00    -0.060 A 
ATOM      8  C   UNL     1      -0.625   3.449  -2.140  0.00  0.00    -0.061 A 
ATOM      9  C   UNL     1      -0.320   2.540  -1.129  0.00  0.00    -0.052 A 
ATOM     10  C   UNL     1      -1.247   1.539  -0.740  0.00  0.00    +0.013 A 
ATOM     11  H   UNL     1      -1.833  -1.056   1.417  0.00  0.00    +0.065 HD
ATOM     12  H   UNL     1      -3.754   2.368  -2.864  0.00  0.00    +0.064 HD
ATOM     13  H   UNL     1      -2.116   4.081  -3.558  0.00  0.00    +0.062 HD
ATOM     14  H   UNL     1       0.092   4.214  -2.425  0.00  0.00    +0.062 HD
ATOM     15  H   UNL     1       0.643   2.636  -0.630  0.00  0.00    +0.062 HD
ENDROOT
BRANCH   3  16
ATOM     16  C   UNL     1      -4.366  -1.185   0.278  0.00  0.00    +0.018 A 
ATOM     17  C   UNL     1      -4.565  -1.765   1.540  0.00  0.00    -0.050 A 
ATOM     18  C   UNL     1      -5.647  -2.617   1.770  0.00  0.00    -0.043 A 
ATOM     19  C   UNL     1      -6.516  -2.873   0.725  0.00  0.00    +0.028 A 
ATOM     20  N   UNL     1      -6.378  -2.340  -0.504  0.00  0.00    -0.263 NA
ATOM     21  C   UNL     1      -5.319  -1.510  -0.691  0.00  0.00    +0.037 A 
ATOM     22  H   UNL     1      -3.896  -1.550   2.369  0.00  0.00    +0.063 HD
ATOM     23  H   UNL     1      -5.808  -3.065   2.744  0.00  0.00    +0.063 HD
ATOM     24  H   UNL     1      -7.373  -3.529   0.854  0.00  0.00    +0.083 HD
ATOM     25  H   UNL     1      -5.254  -1.098  -1.697  0.00  0.00    +0.084 HD
ENDBRANCH   3  16
BRANCH   1  27
ATOM     26  N   UNL     1       1.337   0.162   0.129  0.00  0.00    -0.281 N 
ATOM     27  C   UNL     1       0.269   0.429   0.964  0.00  0.00    +0.249 C 
ATOM     28  O   UNL     1       0.268   0.502   2.185  0.00  0.00    -0.270 OA
ATOM     29  H   UNL     1       1.127   0.048  -0.856  0.00  0.00    +0.155 HD
BRANCH  26  33
ATOM     30  C   UNL     1       5.422  -0.372   1.067  0.00  0.00    +0.037 A 
ATOM     31  C   UNL     1       4.523  -0.037   2.084  0.00  0.00    -0.048 A 
ATOM     32  C   UNL     1       3.163   0.139   1.801  0.00  0.00    -0.040 A 
ATOM     33  C   UNL     1       2.687  -0.007   0.497  0.00  0.00    +0.034 A 
ATOM     34  C   UNL     1       3.594  -0.325  -0.523  0.00  0.00    -0.040 A 
ATOM     35  C   UNL     1       4.953  -0.506  -0.244  0.00  0.00    -0.048 A 
ATOM     36  H   UNL     1       4.875   0.088   3.107  0.00  0.00    +0.063 HD
ATOM     37  H   UNL     1       2.505   0.399   2.625  0.00  0.00    +0.064 HD
ATOM     38  H   UNL     1       3.257  -0.431  -1.552  0.00  0.00    +0.064 HD
ATOM     39  H   UNL     1       5.633  -0.724  -1.062  0.00  0.00    +0.063 HD
BRANCH  30  41
ATOM     40  N   UNL     1       7.617  -1.321   0.584  0.00  0.00    -0.325 N 
ATOM     41  C   UNL     1       6.856  -0.548   1.417  0.00  0.00    +0.242 C 
ATOM     42  O   UNL     1       7.339  -0.054   2.427  0.00  0.00    -0.270 OA
ATOM     43  H   UNL     1       8.548  -1.534   0.921  0.00  0.00    +0.145 HD
ATOM     44  H   UNL     1       7.201  -1.978  -0.060  0.00  0.00    +0.145 HD
ENDBRANCH  30  41
ENDBRANCH  26  33
ENDBRANCH   1  27
TORSDOF 4
