REMARK  Name = 
REMARK  3 active torsions:
REMARK  status: ('A' for Active; 'I' for Inactive)
REMARK    1  A    between atoms: C_1  and  N_2
REMARK    2  A    between atoms: N_9  and  C_14
REMARK    3  A    between atoms: N_12  and  C_13
REMARK                            x       y       z     vdW  Elec       q    Type
REMARK                         _______ _______ _______ _____ _____    ______ ____
ROOT
ATOM      1  N   UNL     1       2.119  -0.375  -0.177  0.00  0.00    -0.328 N 
ATOM      2  C   UNL     1       2.098  -1.744  -0.226  0.00  0.00    +0.099 A 
ATOM      3  N   UNL     1       0.868  -2.213  -0.148  0.00  0.00    -0.218 NA
ATOM      4  C   UNL     1       0.087  -1.102  -0.047  0.00  0.00    +0.168 A 
ATOM      5  C   UNL     1       0.825   0.042  -0.062  0.00  0.00    +0.151 A 
ATOM      6  C   UNL     1       0.252   1.340   0.030  0.00  0.00    +0.282 A 
ATOM      7  O   UNL     1       0.926   2.365   0.015  0.00  0.00    -0.265 OA
ATOM      8  N   UNL     1      -1.142   1.310   0.136  0.00  0.00    -0.262 N 
ATOM      9  C   UNL     1      -1.940   0.147   0.155  0.00  0.00    +0.333 A 
ATOM     10  O   UNL     1      -3.169   0.223   0.253  0.00  0.00    -0.246 OA
ATOM     11  N   UNL     1      -1.283  -1.080   0.059  0.00  0.00    -0.280 N 
ATOM     12  H   UNL     1       2.994  -2.344  -0.317  0.00  0.00    +0.103 HD
ENDROOT
BRANCH   1  13
ATOM     13  C   UNL     1       3.292   0.460  -0.237  0.00  0.00    +0.013 C 
ATOM     14  H   UNL     1       3.349   1.047   0.683  0.00  0.00    +0.046 HD
ATOM     15  H   UNL     1       3.211   1.113  -1.110  0.00  0.00    +0.046 HD
ATOM     16  H   UNL     1       4.182  -0.168  -0.329  0.00  0.00    +0.046 HD
ENDBRANCH   1  13
BRANCH  11  17
ATOM     17  C   UNL     1      -2.031  -2.324   0.072  0.00  0.00    +0.018 C 
ATOM     18  H   UNL     1      -1.841  -2.865  -0.861  0.00  0.00    +0.046 HD
ATOM     19  H   UNL     1      -3.107  -2.151   0.161  0.00  0.00    +0.046 HD
ATOM     20  H   UNL     1      -1.703  -2.930   0.922  0.00  0.00    +0.046 HD
ENDBRANCH  11  17
BRANCH   8  21
ATOM     21  C   UNL     1      -1.847   2.572   0.237  0.00  0.00    +0.020 C 
ATOM     22  H   UNL     1      -2.415   2.589   1.173  0.00  0.00    +0.046 HD
ATOM     23  H   UNL     1      -2.552   2.654  -0.597  0.00  0.00    +0.046 HD
ATOM     24  H   UNL     1      -1.174   3.433   0.217  0.00  0.00    +0.046 HD
ENDBRANCH   8  21
TORSDOF 3
