REMARK  Name = 
REMARK  5 active torsions:
REMARK  status: ('A' for Active; 'I' for Inactive)
REMARK    1  A    between atoms: C_2  and  C_15
REMARK    2  A    between atoms: N_3  and  C_4
REMARK    3  A    between atoms: C_4  and  C_5
REMARK    4  A    between atoms: C_19  and  S_20
REMARK    5  A    between atoms: S_20  and  N_23
REMARK                            x       y       z     vdW  Elec       q    Type
REMARK                         _______ _______ _______ _____ _____    ______ ____
ROOT
ATOM      1  C   UNL     1      -0.529  -1.780   1.709  0.00  0.00    +0.039 A 
ATOM      2  C   UNL     1      -1.136  -2.858   2.368  0.00  0.00    -0.050 A 
ATOM      3  C   UNL     1      -2.457  -2.765   2.816  0.00  0.00    -0.059 A 
ATOM      4  C   UNL     1      -3.186  -1.598   2.596  0.00  0.00    -0.035 A 
ATOM      5  C   UNL     1      -2.587  -0.535   1.913  0.00  0.00    +0.106 A 
ATOM      6  C   UNL     1      -1.262  -0.613   1.470  0.00  0.00    -0.023 A 
ATOM      7  H   UNL     1      -0.574  -3.775   2.543  0.00  0.00    +0.063 HD
ATOM      8  H   UNL     1      -2.913  -3.603   3.338  0.00  0.00    +0.062 HD
ATOM      9  H   UNL     1      -4.212  -1.527   2.953  0.00  0.00    +0.064 HD
ATOM     10  H   UNL     1      -0.831   0.223   0.926  0.00  0.00    +0.064 HD
ENDROOT
BRANCH   1  12
ATOM     11  O   UNL     1       1.327  -3.043   1.002  0.00  0.00    -0.270 OA
ATOM     12  C   UNL     1       0.879  -1.931   1.253  0.00  0.00    +0.244 C 
ATOM     13  N   UNL     1       1.621  -0.773   1.153  0.00  0.00    -0.308 N 
ATOM     14  H   UNL     1       1.269   0.072   1.585  0.00  0.00    +0.149 HD
BRANCH  13  15
ATOM     15  C   UNL     1       3.043  -0.806   0.850  0.00  0.00    +0.052 C 
ATOM     16  H   UNL     1       3.430   0.203   1.030  0.00  0.00    +0.050 HD
ATOM     17  H   UNL     1       3.532  -1.455   1.586  0.00  0.00    +0.050 HD
BRANCH  15  18
ATOM     18  C   UNL     1       3.398  -1.290  -0.570  0.00  0.00    +0.149 C 
ATOM     19  C   UNL     1       2.712  -0.499  -1.682  0.00  0.00    +0.128 C 
ATOM     20  O   UNL     1       3.102   0.878  -1.668  0.00  0.00    -0.485 OA
ATOM     21  C   UNL     1       4.466   0.995  -1.593  0.00  0.00    +0.162 A 
ATOM     22  C   UNL     1       5.012   2.225  -1.954  0.00  0.00    -0.016 A 
ATOM     23  C   UNL     1       6.395   2.410  -1.912  0.00  0.00    -0.058 A 
ATOM     24  C   UNL     1       7.228   1.367  -1.504  0.00  0.00    -0.058 A 
ATOM     25  C   UNL     1       6.678   0.140  -1.128  0.00  0.00    -0.016 A 
ATOM     26  C   UNL     1       5.297  -0.042  -1.160  0.00  0.00    +0.163 A 
ATOM     27  O   UNL     1       4.830  -1.261  -0.742  0.00  0.00    -0.480 OA
ATOM     28  H   UNL     1       3.104  -2.340  -0.676  0.00  0.00    +0.078 HD
ATOM     29  H   UNL     1       2.962  -0.915  -2.667  0.00  0.00    +0.073 HD
ATOM     30  H   UNL     1       1.623  -0.539  -1.581  0.00  0.00    +0.073 HD
ATOM     31  H   UNL     1       4.363   3.034  -2.277  0.00  0.00    +0.066 HD
ATOM     32  H   UNL     1       6.823   3.367  -2.200  0.00  0.00    +0.062 HD
ATOM     33  H   UNL     1       8.305   1.510  -1.475  0.00  0.00    +0.062 HD
ATOM     34  H   UNL     1       7.325  -0.669  -0.801  0.00  0.00    +0.066 HD
ENDBRANCH  15  18
ENDBRANCH  13  15
ENDBRANCH   1  12
BRANCH   5  35
ATOM     35  S   UNL     1      -3.496   0.958   1.611  0.00  0.00    +0.061 S 
ATOM     36  O   UNL     1      -2.613   2.060   1.928  0.00  0.00    -0.153 OA
ATOM     37  O   UNL     1      -4.802   0.842   2.223  0.00  0.00    -0.153 OA
BRANCH  35  38
ATOM     38  N   UNL     1      -3.715   0.923  -0.081  0.00  0.00    -0.172 NA
ATOM     39  C   UNL     1      -4.479  -0.260  -0.604  0.00  0.00    +0.044 C 
ATOM     40  C   UNL     1      -5.027   0.032  -2.005  0.00  0.00    +0.062 C 
ATOM     41  O   UNL     1      -5.968   1.113  -2.023  0.00  0.00    -0.377 OA
ATOM     42  C   UNL     1      -5.715   2.103  -1.014  0.00  0.00    +0.062 C 
ATOM     43  C   UNL     1      -4.233   2.217  -0.646  0.00  0.00    +0.044 C 
ATOM     44  H   UNL     1      -3.805  -1.121  -0.653  0.00  0.00    +0.047 HD
ATOM     45  H   UNL     1      -5.314  -0.496   0.064  0.00  0.00    +0.047 HD
ATOM     46  H   UNL     1      -4.213   0.281  -2.696  0.00  0.00    +0.057 HD
ATOM     47  H   UNL     1      -5.535  -0.851  -2.403  0.00  0.00    +0.057 HD
ATOM     48  H   UNL     1      -6.083   3.059  -1.397  0.00  0.00    +0.057 HD
ATOM     49  H   UNL     1      -6.316   1.848  -0.134  0.00  0.00    +0.057 HD
ATOM     50  H   UNL     1      -4.086   3.046   0.052  0.00  0.00    +0.047 HD
ATOM     51  H   UNL     1      -3.635   2.439  -1.538  0.00  0.00    +0.047 HD
ENDBRANCH  35  38
ENDBRANCH   5  35
TORSDOF 5
