REMARK  Name = 
REMARK  9 active torsions:
REMARK  status: ('A' for Active; 'I' for Inactive)
REMARK    1  A    between atoms: C_1  and  C_2
REMARK    2  A    between atoms: C_2  and  C_3
REMARK    3  A    between atoms: C_2  and  S_24
REMARK    4  A    between atoms: C_7  and  C_9
REMARK    5  A    between atoms: C_11  and  C_14
REMARK    6  A    between atoms: C_17  and  C_20
REMARK    7  A    between atoms: N_22  and  C_23
REMARK    8  A    between atoms: S_24  and  C_25
REMARK    9  A    between atoms: N_29  and  N_30
REMARK                            x       y       z     vdW  Elec       q    Type
REMARK                         _______ _______ _______ _____ _____    ______ ____
ROOT
ATOM      1  C   UNL     1      -3.722  -0.372  -1.207  0.00  0.00    -0.034 A 
ATOM      2  C   UNL     1      -3.927  -1.598  -1.857  0.00  0.00    -0.057 A 
ATOM      3  C   UNL     1      -2.851  -2.429  -2.160  0.00  0.00    -0.061 A 
ATOM      4  C   UNL     1      -1.552  -2.053  -1.812  0.00  0.00    -0.051 A 
ATOM      5  C   UNL     1      -1.309  -0.839  -1.156  0.00  0.00    +0.020 A 
ATOM      6  C   UNL     1      -2.405  -0.010  -0.861  0.00  0.00    -0.047 A 
ATOM      7  H   UNL     1      -4.931  -1.915  -2.133  0.00  0.00    +0.062 HD
ATOM      8  H   UNL     1      -3.024  -3.375  -2.669  0.00  0.00    +0.062 HD
ATOM      9  H   UNL     1      -0.736  -2.724  -2.065  0.00  0.00    +0.062 HD
ATOM     10  H   UNL     1      -2.236   0.931  -0.339  0.00  0.00    +0.063 HD
ENDROOT
BRANCH   5  11
ATOM     11  C   UNL     1       0.051  -0.459  -0.785  0.00  0.00    +0.168 A 
ATOM     12  C   UNL     1       1.278  -1.079  -0.811  0.00  0.00    +0.013 A 
ATOM     13  C   UNL     1       2.197  -0.124  -0.299  0.00  0.00    +0.114 A 
ATOM     14  N   UNL     1       1.551   1.012   0.007  0.00  0.00    -0.078 NA
ATOM     15  O   UNL     1       0.222   0.799  -0.292  0.00  0.00    -0.354 OA
ATOM     16  H   UNL     1       1.484  -2.081  -1.154  0.00  0.00    +0.068 HD
BRANCH  13  17
ATOM     17  C   UNL     1       3.642  -0.264  -0.099  0.00  0.00    +0.004 A 
ATOM     18  C   UNL     1       4.250  -1.528  -0.068  0.00  0.00    -0.052 A 
ATOM     19  C   UNL     1       5.631  -1.650   0.125  0.00  0.00    -0.049 A 
ATOM     20  C   UNL     1       6.427  -0.513   0.299  0.00  0.00    +0.037 A 
ATOM     21  C   UNL     1       5.834   0.753   0.255  0.00  0.00    -0.049 A 
ATOM     22  C   UNL     1       4.452   0.872   0.064  0.00  0.00    -0.052 A 
ATOM     23  H   UNL     1       3.666  -2.437  -0.182  0.00  0.00    +0.062 HD
ATOM     24  H   UNL     1       6.085  -2.640   0.145  0.00  0.00    +0.063 HD
ATOM     25  H   UNL     1       6.428   1.658   0.338  0.00  0.00    +0.063 HD
ATOM     26  H   UNL     1       4.012   1.868   0.030  0.00  0.00    +0.062 HD
BRANCH  20  27
ATOM     27  C   UNL     1       7.892  -0.697   0.499  0.00  0.00    +0.244 C 
ATOM     28  O   UNL     1       8.444  -1.712   0.089  0.00  0.00    -0.270 OA
ATOM     29  N   UNL     1       8.549   0.302   1.188  0.00  0.00    -0.314 N 
ATOM     30  H   UNL     1       8.003   0.970   1.714  0.00  0.00    +0.149 HD
BRANCH  29  31
ATOM     31  C   UNL     1       9.941   0.159   1.536  0.00  0.00    +0.000 C 
ATOM     32  H   UNL     1      10.016  -0.485   2.416  0.00  0.00    +0.043 HD
ATOM     33  H   UNL     1      10.498  -0.288   0.709  0.00  0.00    +0.043 HD
ATOM     34  H   UNL     1      10.344   1.147   1.766  0.00  0.00    +0.043 HD
ENDBRANCH  29  31
ENDBRANCH  20  27
ENDBRANCH  13  17
ENDBRANCH   5  11
BRANCH   1  35
ATOM     35  C   UNL     1      -4.916   0.514  -0.878  0.00  0.00    +0.035 C 
ATOM     36  H   UNL     1      -5.795   0.092  -1.379  0.00  0.00    +0.046 HD
BRANCH  35  37
ATOM     37  C   UNL     1      -4.730   1.947  -1.386  0.00  0.00    -0.049 C 
ATOM     38  H   UNL     1      -4.508   1.948  -2.459  0.00  0.00    +0.024 HD
ATOM     39  H   UNL     1      -3.909   2.469  -0.883  0.00  0.00    +0.024 HD
ATOM     40  H   UNL     1      -5.637   2.543  -1.244  0.00  0.00    +0.024 HD
ENDBRANCH  35  37
BRANCH  35  41
ATOM     41  S   UNL     1      -5.222   0.501   0.931  0.00  0.00    -0.077 S 
BRANCH  41  42
ATOM     42  C   UNL     1      -6.886   0.960   1.003  0.00  0.00    +0.209 A 
ATOM     43  N   UNL     1      -7.708   1.163  -0.002  0.00  0.00    -0.121 NA
ATOM     44  N   UNL     1      -8.937   1.505   0.527  0.00  0.00    -0.135 NA
ATOM     45  C   UNL     1      -8.822   1.495   1.838  0.00  0.00    +0.138 A 
ATOM     46  N   UNL     1      -7.550   1.157   2.187  0.00  0.00    -0.231 N 
ATOM     47  H   UNL     1      -9.597   1.716   2.556  0.00  0.00    +0.106 HD
BRANCH  46  48
ATOM     48  N   UNL     1      -7.050   1.041   3.523  0.00  0.00    -0.295 N 
ATOM     49  H   UNL     1      -6.243   1.651   3.649  0.00  0.00    +0.163 HD
ATOM     50  H   UNL     1      -6.691   0.099   3.680  0.00  0.00    +0.163 HD
ENDBRANCH  46  48
ENDBRANCH  41  42
ENDBRANCH  35  41
ENDBRANCH   1  35
TORSDOF 9
