REMARK  Name = 
REMARK  6 active torsions:
REMARK  status: ('A' for Active; 'I' for Inactive)
REMARK    1  A    between atoms: C_1  and  C_2
REMARK    2  A    between atoms: C_8  and  C_9
REMARK    3  A    between atoms: C_17  and  N_18
REMARK    4  A    between atoms: N_21  and  C_22
REMARK    5  A    between atoms: C_22  and  C_23
REMARK    6  A    between atoms: C_29  and  C_30
REMARK                            x       y       z     vdW  Elec       q    Type
REMARK                         _______ _______ _______ _____ _____    ______ ____
ROOT
ATOM      1  C   UNL     1       3.966  -0.485  -0.324  0.00  0.00    +0.006 A 
ATOM      2  C   UNL     1       3.767  -0.957  -1.637  0.00  0.00    -0.052 A 
ATOM      3  C   UNL     1       2.480  -1.214  -2.140  0.00  0.00    -0.061 A 
ATOM      4  C   UNL     1       1.355  -1.011  -1.346  0.00  0.00    -0.057 A 
ATOM      5  C   UNL     1       1.535  -0.535  -0.057  0.00  0.00    -0.023 A 
ATOM      6  C   UNL     1       2.821  -0.279   0.448  0.00  0.00    -0.033 A 
ATOM      7  C   UNL     1       2.739   0.141   1.891  0.00  0.00    -0.025 C 
ATOM      8  C   UNL     1       1.266   0.551   2.011  0.00  0.00    -0.026 C 
ATOM      9  C   UNL     1       0.493  -0.320   1.003  0.00  0.00    +0.050 C 
ATOM     10  H   UNL     1       4.623  -1.160  -2.280  0.00  0.00    +0.062 HD
ATOM     11  H   UNL     1       2.368  -1.596  -3.151  0.00  0.00    +0.062 HD
ATOM     12  H   UNL     1       0.361  -1.239  -1.723  0.00  0.00    +0.062 HD
ATOM     13  H   UNL     1       3.401   0.984   2.129  0.00  0.00    +0.031 HD
ATOM     14  H   UNL     1       2.964  -0.710   2.543  0.00  0.00    +0.031 HD
ATOM     15  H   UNL     1       1.166   1.615   1.753  0.00  0.00    +0.029 HD
ATOM     16  H   UNL     1       0.892   0.434   3.033  0.00  0.00    +0.029 HD
ATOM     17  H   UNL     1       0.226  -1.283   1.457  0.00  0.00    +0.055 HD
ENDROOT
BRANCH   1  24
ATOM     18  C   UNL     1       6.193   0.734  -0.279  0.00  0.00    +0.064 A 
ATOM     19  N   UNL     1       7.450   0.882   0.225  0.00  0.00    -0.255 NA
ATOM     20  C   UNL     1       7.788   0.033   1.229  0.00  0.00    +0.060 A 
ATOM     21  C   UNL     1       6.915  -0.923   1.727  0.00  0.00    +0.125 A 
ATOM     22 BR   UNL     1       7.464  -2.045   3.152  0.00  0.00    -0.027 Br
ATOM     23  N   UNL     1       5.670  -1.082   1.227  0.00  0.00    -0.237 NA
ATOM     24  C   UNL     1       5.315  -0.255   0.206  0.00  0.00    +0.093 A 
ATOM     25  H   UNL     1       8.790   0.154   1.626  0.00  0.00    +0.086 HD
BRANCH  18  26
ATOM     26  C   UNL     1       5.802   1.697  -1.364  0.00  0.00    -0.020 C 
ATOM     27  H   UNL     1       5.701   1.178  -2.321  0.00  0.00    +0.029 HD
ATOM     28  H   UNL     1       4.861   2.195  -1.112  0.00  0.00    +0.029 HD
ATOM     29  H   UNL     1       6.564   2.477  -1.488  0.00  0.00    +0.029 HD
ENDBRANCH  18  26
ENDBRANCH   1  24
BRANCH   9  30
ATOM     30  N   UNL     1      -0.691   0.334   0.496  0.00  0.00    -0.293 N 
ATOM     31  C   UNL     1      -1.843   0.326   1.235  0.00  0.00    +0.300 C 
ATOM     32  O   UNL     1      -1.960  -0.245   2.308  0.00  0.00    -0.253 OA
ATOM     33  N   UNL     1      -2.854   0.989   0.598  0.00  0.00    -0.295 N 
ATOM     34  H   UNL     1      -0.544   1.152  -0.072  0.00  0.00    +0.151 HD
ATOM     35  H   UNL     1      -2.732   1.129  -0.390  0.00  0.00    +0.151 HD
BRANCH  33  36
ATOM     36  C   UNL     1      -4.213   0.994   1.105  0.00  0.00    +0.039 C 
ATOM     37  H   UNL     1      -4.219   0.832   2.192  0.00  0.00    +0.051 HD
ATOM     38  H   UNL     1      -4.588   2.007   0.928  0.00  0.00    +0.051 HD
BRANCH  36  39
ATOM     39  C   UNL     1      -5.048  -0.070   0.428  0.00  0.00    -0.018 A 
ATOM     40  C   UNL     1      -4.758  -1.426   0.698  0.00  0.00    -0.054 A 
ATOM     41  C   UNL     1      -5.460  -2.451   0.069  0.00  0.00    -0.026 A 
ATOM     42  C   UNL     1      -6.476  -2.135  -0.817  0.00  0.00    +0.124 A 
ATOM     43  F   UNL     1      -7.163  -3.120  -1.399  0.00  0.00    -0.205 F 
ATOM     44  C   UNL     1      -6.797  -0.813  -1.097  0.00  0.00    -0.014 A 
ATOM     45  C   UNL     1      -6.078   0.221  -0.490  0.00  0.00    +0.044 A 
ATOM     46  H   UNL     1      -3.976  -1.690   1.418  0.00  0.00    +0.062 HD
ATOM     47  H   UNL     1      -5.220  -3.492   0.270  0.00  0.00    +0.065 HD
ATOM     48  H   UNL     1      -7.628  -0.599  -1.772  0.00  0.00    +0.065 HD
BRANCH  45  49
ATOM     49  C   UNL     1      -6.469   1.614  -0.829  0.00  0.00    +0.242 C 
ATOM     50  N   UNL     1      -6.498   1.913  -2.161  0.00  0.00    -0.325 N 
ATOM     51  O   UNL     1      -6.752   2.437   0.032  0.00  0.00    -0.270 OA
ATOM     52  H   UNL     1      -6.214   1.263  -2.876  0.00  0.00    +0.145 HD
ATOM     53  H   UNL     1      -6.755   2.853  -2.428  0.00  0.00    +0.145 HD
ENDBRANCH  45  49
ENDBRANCH  36  39
ENDBRANCH  33  36
ENDBRANCH   9  30
TORSDOF 6
