REMARK  Name = 
REMARK  6 active torsions:
REMARK  status: ('A' for Active; 'I' for Inactive)
REMARK    1  A    between atoms: C_2  and  C_4
REMARK    2  A    between atoms: C_10  and  C_11
REMARK    3  A    between atoms: C_11  and  N_12
REMARK    4  A    between atoms: N_15  and  C_16
REMARK    5  A    between atoms: C_18  and  N_19
REMARK    6  A    between atoms: C_20  and  C_22
REMARK                            x       y       z     vdW  Elec       q    Type
REMARK                         _______ _______ _______ _____ _____    ______ ____
ROOT
ATOM      1  C   UNL     1      -0.572  -0.603  -0.418  0.00  0.00    +0.052 C 
ATOM      2  C   UNL     1      -1.206  -0.798   0.974  0.00  0.00    -0.008 C 
ATOM      3  C   UNL     1      -2.502  -1.602   0.749  0.00  0.00    +0.051 C 
ATOM      4  C   UNL     1      -2.128  -2.413  -0.461  0.00  0.00    -0.022 A 
ATOM      5  C   UNL     1      -2.755  -3.549  -0.951  0.00  0.00    -0.056 A 
ATOM      6  C   UNL     1      -2.260  -4.127  -2.123  0.00  0.00    -0.061 A 
ATOM      7  C   UNL     1      -1.161  -3.561  -2.791  0.00  0.00    -0.061 A 
ATOM      8  C   UNL     1      -0.542  -2.411  -2.297  0.00  0.00    -0.056 A 
ATOM      9  C   UNL     1      -1.028  -1.850  -1.123  0.00  0.00    -0.022 A 
ATOM     10  H   UNL     1      -1.002   0.276  -0.914  0.00  0.00    +0.055 HD
ATOM     11  H   UNL     1      -1.364   0.155   1.488  0.00  0.00    +0.031 HD
ATOM     12  H   UNL     1      -0.528  -1.391   1.604  0.00  0.00    +0.031 HD
ATOM     13  H   UNL     1      -2.720  -2.239   1.615  0.00  0.00    +0.055 HD
ATOM     14  H   UNL     1      -3.611  -3.981  -0.439  0.00  0.00    +0.062 HD
ATOM     15  H   UNL     1      -2.731  -5.021  -2.526  0.00  0.00    +0.062 HD
ATOM     16  H   UNL     1      -0.793  -4.021  -3.707  0.00  0.00    +0.062 HD
ATOM     17  H   UNL     1       0.298  -1.964  -2.823  0.00  0.00    +0.062 HD
ENDROOT
BRANCH   1  21
ATOM     18  N   UNL     1       2.799   0.558   0.164  0.00  0.00    -0.295 N 
ATOM     19  C   UNL     1       1.439   0.689   0.056  0.00  0.00    +0.300 C 
ATOM     20  O   UNL     1       0.819   1.711   0.306  0.00  0.00    -0.253 OA
ATOM     21  N   UNL     1       0.865  -0.478  -0.365  0.00  0.00    -0.293 N 
ATOM     22  H   UNL     1       3.194   0.001  -0.590  0.00  0.00    +0.151 HD
ATOM     23  H   UNL     1       1.399  -1.314  -0.176  0.00  0.00    +0.151 HD
BRANCH  18  24
ATOM     24  C   UNL     1       3.586   1.727   0.467  0.00  0.00    +0.039 C 
ATOM     25  H   UNL     1       3.605   2.379  -0.414  0.00  0.00    +0.051 HD
ATOM     26  H   UNL     1       3.087   2.299   1.258  0.00  0.00    +0.051 HD
BRANCH  24  33
ATOM     27  C   UNL     1       5.980   0.932  -0.022  0.00  0.00    +0.044 A 
ATOM     28  C   UNL     1       7.274   0.638   0.432  0.00  0.00    -0.014 A 
ATOM     29  C   UNL     1       7.581   0.775   1.779  0.00  0.00    +0.124 A 
ATOM     30  F   UNL     1       8.820   0.497   2.205  0.00  0.00    -0.205 F 
ATOM     31  C   UNL     1       6.622   1.183   2.691  0.00  0.00    -0.026 A 
ATOM     32  C   UNL     1       5.330   1.470   2.252  0.00  0.00    -0.054 A 
ATOM     33  C   UNL     1       4.990   1.363   0.890  0.00  0.00    -0.018 A 
ATOM     34  H   UNL     1       8.040   0.277  -0.239  0.00  0.00    +0.065 HD
ATOM     35  H   UNL     1       6.880   1.269   3.739  0.00  0.00    +0.065 HD
ATOM     36  H   UNL     1       4.580   1.776   2.979  0.00  0.00    +0.062 HD
BRANCH  27  38
ATOM     37  N   UNL     1       6.625   1.141  -2.357  0.00  0.00    -0.325 N 
ATOM     38  C   UNL     1       5.672   0.734  -1.464  0.00  0.00    +0.242 C 
ATOM     39  O   UNL     1       4.618   0.239  -1.843  0.00  0.00    -0.270 OA
ATOM     40  H   UNL     1       6.365   1.121  -3.339  0.00  0.00    +0.145 HD
ATOM     41  H   UNL     1       7.397   1.739  -2.094  0.00  0.00    +0.145 HD
ENDBRANCH  27  38
ENDBRANCH  24  33
ENDBRANCH  18  24
ENDBRANCH   1  21
BRANCH   3  42
ATOM     42  N   UNL     1      -3.646  -0.759   0.464  0.00  0.00    -0.304 N 
ATOM     43  C   UNL     1      -4.287  -0.075   1.472  0.00  0.00    +0.245 C 
ATOM     44  O   UNL     1      -3.934  -0.136   2.645  0.00  0.00    -0.270 OA
ATOM     45  H   UNL     1      -4.064  -0.834  -0.452  0.00  0.00    +0.150 HD
BRANCH  43  46
ATOM     46  C   UNL     1      -5.479   0.738   1.091  0.00  0.00    +0.037 A 
ATOM     47  C   UNL     1      -5.729   1.154  -0.226  0.00  0.00    -0.047 A 
ATOM     48  C   UNL     1      -6.869   1.911  -0.517  0.00  0.00    -0.026 A 
ATOM     49  C   UNL     1      -7.747   2.260   0.503  0.00  0.00    +0.123 A 
ATOM     50  F   UNL     1      -8.838   2.983   0.218  0.00  0.00    -0.205 F 
ATOM     51  C   UNL     1      -7.506   1.873   1.815  0.00  0.00    -0.026 A 
ATOM     52  C   UNL     1      -6.370   1.114   2.110  0.00  0.00    -0.047 A 
ATOM     53  H   UNL     1      -5.043   0.926  -1.037  0.00  0.00    +0.063 HD
ATOM     54  H   UNL     1      -7.073   2.239  -1.530  0.00  0.00    +0.065 HD
ATOM     55  H   UNL     1      -8.198   2.165   2.600  0.00  0.00    +0.065 HD
ATOM     56  H   UNL     1      -6.180   0.815   3.139  0.00  0.00    +0.063 HD
ENDBRANCH  43  46
ENDBRANCH   3  42
TORSDOF 6
