REMARK  Name = 
REMARK  4 active torsions:
REMARK  status: ('A' for Active; 'I' for Inactive)
REMARK    1  A    between atoms: C_2  and  C_11
REMARK    2  A    between atoms: N_3  and  C_4
REMARK    3  A    between atoms: C_4  and  C_5
REMARK    4  A    between atoms: C_16  and  C_17
REMARK                            x       y       z     vdW  Elec       q    Type
REMARK                         _______ _______ _______ _____ _____    ______ ____
ROOT
ATOM      1  C   UNL     1      -0.957  -2.293   1.050  0.00  0.00    +0.068 C 
ATOM      2  C   UNL     1      -1.611  -3.668   1.000  0.00  0.00    +0.024 C 
ATOM      3  N   UNL     1      -2.929  -3.419   0.498  0.00  0.00    -0.314 N 
ATOM      4  C   UNL     1      -3.301  -2.096   0.611  0.00  0.00    +0.223 C 
ATOM      5  O   UNL     1      -4.404  -1.676   0.304  0.00  0.00    -0.275 OA
ATOM      6  C   UNL     1      -2.154  -1.335   1.244  0.00  0.00    +0.090 C 
ATOM      7  H   UNL     1      -0.264  -2.240   1.900  0.00  0.00    +0.042 HD
ATOM      8  H   UNL     1      -1.720  -4.090   2.005  0.00  0.00    +0.047 HD
ATOM      9  H   UNL     1      -1.107  -4.400   0.363  0.00  0.00    +0.047 HD
ATOM     10  H   UNL     1      -3.568  -4.117   0.136  0.00  0.00    +0.149 HD
ATOM     11  H   UNL     1      -2.400  -1.313   2.317  0.00  0.00    +0.047 HD
ENDROOT
BRANCH   6  12
ATOM     12  C   UNL     1      -1.925   0.094   0.829  0.00  0.00    +0.054 A 
ATOM     13  C   UNL     1      -2.601   0.725  -0.211  0.00  0.00    -0.040 A 
ATOM     14  C   UNL     1      -2.301   2.053  -0.511  0.00  0.00    -0.059 A 
ATOM     15  C   UNL     1      -1.336   2.724   0.227  0.00  0.00    -0.044 A 
ATOM     16  C   UNL     1      -0.696   2.032   1.236  0.00  0.00    +0.028 A 
ATOM     17  N   UNL     1      -0.955   0.739   1.540  0.00  0.00    -0.259 NA
ATOM     18  H   UNL     1      -3.359   0.215  -0.797  0.00  0.00    +0.064 HD
ATOM     19  H   UNL     1      -2.828   2.559  -1.316  0.00  0.00    +0.062 HD
ATOM     20  H   UNL     1      -1.088   3.759   0.018  0.00  0.00    +0.063 HD
ATOM     21  H   UNL     1       0.073   2.507   1.838  0.00  0.00    +0.083 HD
ENDBRANCH   6  12
BRANCH   1  23
ATOM     22  O   UNL     1      -0.237  -2.698  -1.232  0.00  0.00    -0.275 OA
ATOM     23  C   UNL     1      -0.136  -2.030  -0.208  0.00  0.00    +0.219 C 
ATOM     24  N   UNL     1       0.752  -0.985  -0.090  0.00  0.00    -0.311 N 
ATOM     25  H   UNL     1       0.558  -0.296   0.636  0.00  0.00    +0.149 HD
BRANCH  24  26
ATOM     26  C   UNL     1       1.482  -0.518  -1.245  0.00  0.00    +0.037 C 
ATOM     27  H   UNL     1       0.757  -0.253  -2.023  0.00  0.00    +0.051 HD
ATOM     28  H   UNL     1       2.092  -1.340  -1.638  0.00  0.00    +0.051 HD
BRANCH  26  29
ATOM     29  C   UNL     1       2.353   0.659  -0.895  0.00  0.00    -0.030 A 
ATOM     30  C   UNL     1       2.046   1.941  -1.372  0.00  0.00    -0.057 A 
ATOM     31  C   UNL     1       2.844   3.034  -1.031  0.00  0.00    -0.061 A 
ATOM     32  C   UNL     1       3.955   2.857  -0.208  0.00  0.00    -0.062 A 
ATOM     33  C   UNL     1       4.269   1.588   0.275  0.00  0.00    -0.061 A 
ATOM     34  C   UNL     1       3.472   0.494  -0.066  0.00  0.00    -0.057 A 
ATOM     35  H   UNL     1       1.180   2.095  -2.012  0.00  0.00    +0.062 HD
ATOM     36  H   UNL     1       2.601   4.023  -1.410  0.00  0.00    +0.062 HD
ATOM     37  H   UNL     1       4.578   3.708   0.055  0.00  0.00    +0.062 HD
ATOM     38  H   UNL     1       5.135   1.450   0.916  0.00  0.00    +0.062 HD
ATOM     39  H   UNL     1       3.724  -0.492   0.319  0.00  0.00    +0.062 HD
ENDBRANCH  26  29
ENDBRANCH  24  26
ENDBRANCH   1  23
TORSDOF 4
