REMARK  Name = 
REMARK  4 active torsions:
REMARK  status: ('A' for Active; 'I' for Inactive)
REMARK    1  A    between atoms: C_1  and  N_2
REMARK    2  A    between atoms: C_6  and  C_7
REMARK    3  A    between atoms: C_17  and  C_18
REMARK    4  A    between atoms: C_25  and  C_26
REMARK                            x       y       z     vdW  Elec       q    Type
REMARK                         _______ _______ _______ _____ _____    ______ ____
ROOT
ATOM      1  C   UNL     1      -1.815   0.473  -1.248  0.00  0.00    +0.113 A 
ATOM      2  C   UNL     1      -0.997   0.567  -0.142  0.00  0.00    +0.008 A 
ATOM      3  C   UNL     1       0.239  -0.032  -0.233  0.00  0.00    +0.132 A 
ATOM      4  N   UNL     1       1.143   0.014   0.853  0.00  0.00    -0.248 N 
ATOM      5  C   UNL     1       0.848   0.681   2.107  0.00  0.00    +0.048 C 
ATOM      6  C   UNL     1       2.086   0.457   2.915  0.00  0.00    -0.006 A 
ATOM      7  C   UNL     1       3.000  -0.281   2.168  0.00  0.00    +0.042 A 
ATOM      8  C   UNL     1       4.241  -0.643   2.657  0.00  0.00    -0.049 A 
ATOM      9  C   UNL     1       4.566  -0.242   3.952  0.00  0.00    -0.060 A 
ATOM     10  C   UNL     1       3.653   0.505   4.721  0.00  0.00    -0.050 A 
ATOM     11  C   UNL     1       2.392   0.867   4.211  0.00  0.00    +0.060 A 
ATOM     12  C   UNL     1       2.409  -0.569   0.854  0.00  0.00    +0.253 C 
ATOM     13  O   UNL     1       3.011  -1.207   0.011  0.00  0.00    -0.270 OA
ATOM     14  N   UNL     1       0.612  -0.669  -1.351  0.00  0.00    -0.217 NA
ATOM     15  C   UNL     1      -0.234  -0.728  -2.392  0.00  0.00    +0.135 A 
ATOM     16  N   UNL     1      -1.453  -0.164  -2.374  0.00  0.00    -0.228 NA
ATOM     17  H   UNL     1      -1.339   1.092   0.739  0.00  0.00    +0.067 HD
ATOM     18  H   UNL     1       0.687   1.749   1.930  0.00  0.00    +0.052 HD
ATOM     19  H   UNL     1      -0.018   0.211   2.583  0.00  0.00    +0.052 HD
ATOM     20  H   UNL     1       4.931  -1.220   2.048  0.00  0.00    +0.063 HD
ATOM     21  H   UNL     1       5.535  -0.508   4.372  0.00  0.00    +0.062 HD
ATOM     22  H   UNL     1       3.940   0.802   5.730  0.00  0.00    +0.062 HD
ENDROOT
BRANCH  15  23
ATOM     23  C   UNL     1       0.207  -1.451  -3.639  0.00  0.00    +0.019 C 
ATOM     24  C   UNL     1       0.688  -2.882  -3.555  0.00  0.00    -0.043 C 
ATOM     25  C   UNL     1      -0.629  -2.578  -4.203  0.00  0.00    -0.043 C 
ATOM     26  H   UNL     1       0.719  -0.822  -4.362  0.00  0.00    +0.038 HD
ATOM     27  H   UNL     1       1.522  -3.167  -4.187  0.00  0.00    +0.027 HD
ATOM     28  H   UNL     1       0.689  -3.365  -2.584  0.00  0.00    +0.027 HD
ATOM     29  H   UNL     1      -1.530  -2.870  -3.675  0.00  0.00    +0.027 HD
ATOM     30  H   UNL     1      -0.698  -2.665  -5.281  0.00  0.00    +0.027 HD
ENDBRANCH  15  23
BRANCH   1  35
ATOM     31  N   UNL     1      -4.085   1.067  -2.244  0.00  0.00    -0.315 N 
ATOM     32  C   UNL     1      -5.163   1.757  -1.778  0.00  0.00    +0.120 A 
ATOM     33  N   UNL     1      -4.926   2.178  -0.560  0.00  0.00    -0.137 NA
ATOM     34  N   UNL     1      -3.666   1.756  -0.219  0.00  0.00    -0.128 NA
ATOM     35  C   UNL     1      -3.147   1.081  -1.235  0.00  0.00    +0.182 A 
ATOM     36  H   UNL     1      -6.070   1.922  -2.344  0.00  0.00    +0.105 HD
BRANCH  31  37
ATOM     37  C   UNL     1      -3.992   0.459  -3.545  0.00  0.00    +0.015 C 
ATOM     38  H   UNL     1      -3.846  -0.617  -3.423  0.00  0.00    +0.046 HD
ATOM     39  H   UNL     1      -4.921   0.633  -4.095  0.00  0.00    +0.046 HD
ATOM     40  H   UNL     1      -3.163   0.915  -4.091  0.00  0.00    +0.046 HD
ENDBRANCH  31  37
ENDBRANCH   1  35
BRANCH  11  41
ATOM     41  C   UNL     1       1.408   1.665   5.023  0.00  0.00    +0.418 C 
ATOM     42  F   UNL     1       1.081   2.841   4.420  0.00  0.00    -0.166 F 
ATOM     43  F   UNL     1       0.234   1.001   5.201  0.00  0.00    -0.166 F 
ATOM     44  F   UNL     1       1.853   1.988   6.267  0.00  0.00    -0.166 F 
ENDBRANCH  11  41
TORSDOF 4
