REMARK  Name = 
REMARK  9 active torsions:
REMARK  status: ('A' for Active; 'I' for Inactive)
REMARK    1  A    between atoms: C_1  and  C_2
REMARK    2  A    between atoms: C_5  and  C_6
REMARK    3  A    between atoms: C_6  and  N_7
REMARK    4  A    between atoms: N_7  and  C_8
REMARK    5  A    between atoms: N_7  and  C_9
REMARK    6  A    between atoms: C_12  and  C_13
REMARK    7  A    between atoms: C_13  and  N_14
REMARK    8  A    between atoms: N_17  and  C_18
REMARK    9  A    between atoms: C_27  and  C_28
REMARK                            x       y       z     vdW  Elec       q    Type
REMARK                         _______ _______ _______ _____ _____    ______ ____
ROOT
ATOM      1  C   UNL     1       2.240  -0.623   0.979  0.00  0.00    +0.030 A 
ATOM      2  C   UNL     1       1.778  -1.729   0.253  0.00  0.00    -0.040 A 
ATOM      3  C   UNL     1       0.898  -1.591  -0.827  0.00  0.00    -0.055 A 
ATOM      4  C   UNL     1       0.435  -0.330  -1.225  0.00  0.00    -0.018 A 
ATOM      5  C   UNL     1       0.859   0.791  -0.491  0.00  0.00    +0.043 A 
ATOM      6  C   UNL     1       1.755   0.634   0.586  0.00  0.00    -0.028 A 
ATOM      7  H   UNL     1       2.071  -2.736   0.543  0.00  0.00    +0.064 HD
ATOM      8  H   UNL     1       0.553  -2.488  -1.339  0.00  0.00    +0.062 HD
ATOM      9  H   UNL     1       2.110   1.526   1.094  0.00  0.00    +0.064 HD
ENDROOT
BRANCH   5  10
ATOM     10  C   UNL     1       0.379   2.163  -0.826  0.00  0.00    +0.242 C 
ATOM     11  N   UNL     1       0.144   3.002   0.228  0.00  0.00    -0.325 N 
ATOM     12  O   UNL     1       0.171   2.535  -1.972  0.00  0.00    -0.270 OA
ATOM     13  H   UNL     1       0.102   2.674   1.183  0.00  0.00    +0.145 HD
ATOM     14  H   UNL     1      -0.248   3.908   0.011  0.00  0.00    +0.145 HD
ENDBRANCH   5  10
BRANCH   4  15
ATOM     15  C   UNL     1      -0.536  -0.243  -2.375  0.00  0.00    +0.039 C 
ATOM     16  H   UNL     1      -0.184   0.467  -3.130  0.00  0.00    +0.051 HD
ATOM     17  H   UNL     1      -0.623  -1.209  -2.889  0.00  0.00    +0.051 HD
BRANCH  15  18
ATOM     18  N   UNL     1      -1.845   0.170  -1.923  0.00  0.00    -0.295 N 
ATOM     19  C   UNL     1      -2.766  -0.737  -1.485  0.00  0.00    +0.300 C 
ATOM     20  O   UNL     1      -2.580  -1.945  -1.437  0.00  0.00    -0.253 OA
ATOM     21  N   UNL     1      -3.917  -0.112  -1.079  0.00  0.00    -0.293 N 
ATOM     22  H   UNL     1      -2.198   1.037  -2.308  0.00  0.00    +0.151 HD
ATOM     23  H   UNL     1      -3.755   0.811  -0.712  0.00  0.00    +0.151 HD
BRANCH  21  24
ATOM     24  C   UNL     1      -4.943  -0.893  -0.425  0.00  0.00    +0.050 C 
ATOM     25  C   UNL     1      -5.722  -1.788  -1.413  0.00  0.00    -0.026 C 
ATOM     26  C   UNL     1      -7.119  -1.976  -0.812  0.00  0.00    -0.025 C 
ATOM     27  C   UNL     1      -7.298  -0.687  -0.073  0.00  0.00    -0.042 A 
ATOM     28  C   UNL     1      -8.474  -0.152   0.423  0.00  0.00    -0.058 A 
ATOM     29  C   UNL     1      -8.408   1.042   1.144  0.00  0.00    -0.061 A 
ATOM     30  C   UNL     1      -7.175   1.670   1.372  0.00  0.00    -0.061 A 
ATOM     31  C   UNL     1      -5.990   1.116   0.881  0.00  0.00    -0.057 A 
ATOM     32  C   UNL     1      -6.062  -0.061   0.148  0.00  0.00    -0.024 A 
ATOM     33  H   UNL     1      -4.494  -1.495   0.376  0.00  0.00    +0.055 HD
ATOM     34  H   UNL     1      -5.220  -2.745  -1.596  0.00  0.00    +0.029 HD
ATOM     35  H   UNL     1      -5.814  -1.286  -2.386  0.00  0.00    +0.029 HD
ATOM     36  H   UNL     1      -7.135  -2.817  -0.111  0.00  0.00    +0.031 HD
ATOM     37  H   UNL     1      -7.875  -2.122  -1.587  0.00  0.00    +0.031 HD
ATOM     38  H   UNL     1      -9.427  -0.648   0.262  0.00  0.00    +0.062 HD
ATOM     39  H   UNL     1      -9.320   1.480   1.543  0.00  0.00    +0.062 HD
ATOM     40  H   UNL     1      -7.142   2.592   1.948  0.00  0.00    +0.062 HD
ATOM     41  H   UNL     1      -5.039   1.596   1.088  0.00  0.00    +0.062 HD
ENDBRANCH  21  24
ENDBRANCH  15  18
ENDBRANCH   4  15
BRANCH   1  42
ATOM     42  N   UNL     1       3.115  -0.797   2.055  0.00  0.00    -0.329 N 
BRANCH  42  43
ATOM     43  C   UNL     1       3.234   0.266   3.051  0.00  0.00    +0.001 C 
ATOM     44  H   UNL     1       2.248   0.562   3.425  0.00  0.00    +0.043 HD
ATOM     45  H   UNL     1       3.747   1.147   2.646  0.00  0.00    +0.043 HD
ATOM     46  H   UNL     1       3.808  -0.088   3.918  0.00  0.00    +0.043 HD
ENDBRANCH  42  43
BRANCH  42  47
ATOM     47  C   UNL     1       4.335  -1.590   1.815  0.00  0.00    +0.037 C 
ATOM     48  H   UNL     1       4.734  -1.929   2.780  0.00  0.00    +0.051 HD
ATOM     49  H   UNL     1       4.133  -2.517   1.268  0.00  0.00    +0.051 HD
BRANCH  47  53
ATOM     50  C   UNL     1       7.369   0.717  -0.252  0.00  0.00    -0.050 A 
ATOM     51  C   UNL     1       6.399   0.013  -0.973  0.00  0.00    -0.059 A 
ATOM     52  C   UNL     1       5.423  -0.733  -0.307  0.00  0.00    -0.057 A 
ATOM     53  C   UNL     1       5.408  -0.801   1.093  0.00  0.00    -0.030 A 
ATOM     54  C   UNL     1       6.393  -0.108   1.811  0.00  0.00    -0.057 A 
ATOM     55  C   UNL     1       7.366   0.640   1.144  0.00  0.00    -0.059 A 
ATOM     56  H   UNL     1       6.389   0.046  -2.060  0.00  0.00    +0.062 HD
ATOM     57  H   UNL     1       4.669  -1.259  -0.888  0.00  0.00    +0.062 HD
ATOM     58  H   UNL     1       6.408  -0.145   2.899  0.00  0.00    +0.062 HD
ATOM     59  H   UNL     1       8.118   1.169   1.723  0.00  0.00    +0.062 HD
BRANCH  50  60
ATOM     60  C   UNL     1       8.427   1.499  -0.971  0.00  0.00    -0.040 C 
ATOM     61  H   UNL     1       9.267   0.845  -1.226  0.00  0.00    +0.028 HD
ATOM     62  H   UNL     1       8.797   2.322  -0.351  0.00  0.00    +0.028 HD
ATOM     63  H   UNL     1       8.027   1.939  -1.891  0.00  0.00    +0.028 HD
ENDBRANCH  50  60
ENDBRANCH  47  53
ENDBRANCH  42  47
ENDBRANCH   1  42
TORSDOF 9
