REMARK  Name = 
REMARK  6 active torsions:
REMARK  status: ('A' for Active; 'I' for Inactive)
REMARK    1  A    between atoms: C_1  and  C_2
REMARK    2  A    between atoms: C_8  and  C_9
REMARK    3  A    between atoms: C_12  and  C_13
REMARK    4  A    between atoms: C_13  and  N_14
REMARK    5  A    between atoms: N_17  and  C_18
REMARK    6  A    between atoms: C_27  and  C_28
REMARK                            x       y       z     vdW  Elec       q    Type
REMARK                         _______ _______ _______ _____ _____    ______ ____
ROOT
ATOM      1  C   UNL     1      -3.761   0.327  -0.403  0.00  0.00    -0.017 A 
ATOM      2  C   UNL     1      -2.647  -0.202  -1.067  0.00  0.00    -0.054 A 
ATOM      3  C   UNL     1      -1.373   0.350  -0.890  0.00  0.00    -0.056 A 
ATOM      4  C   UNL     1      -1.169   1.447  -0.035  0.00  0.00    -0.018 A 
ATOM      5  C   UNL     1      -2.299   2.014   0.583  0.00  0.00    +0.042 A 
ATOM      6  C   UNL     1      -3.572   1.446   0.419  0.00  0.00    -0.042 A 
ATOM      7  H   UNL     1      -2.763  -1.063  -1.724  0.00  0.00    +0.062 HD
ATOM      8  H   UNL     1      -0.534  -0.095  -1.422  0.00  0.00    +0.062 HD
ATOM      9  H   UNL     1      -4.425   1.891   0.930  0.00  0.00    +0.063 HD
ENDROOT
BRANCH   1  16
ATOM     10  C   UNL     1      -5.743  -1.005   0.433  0.00  0.00    -0.043 A 
ATOM     11  C   UNL     1      -7.030  -1.525   0.203  0.00  0.00    -0.056 A 
ATOM     12  C   UNL     1      -7.666  -1.335  -1.022  0.00  0.00    -0.026 A 
ATOM     13  C   UNL     1      -7.022  -0.620  -2.019  0.00  0.00    +0.124 A 
ATOM     14  F   UNL     1      -7.631  -0.436  -3.198  0.00  0.00    -0.205 F 
ATOM     15  C   UNL     1      -5.755  -0.086  -1.813  0.00  0.00    -0.018 A 
ATOM     16  C   UNL     1      -5.095  -0.263  -0.584  0.00  0.00    -0.012 A 
ATOM     17  H   UNL     1      -7.543  -2.087   0.982  0.00  0.00    +0.062 HD
ATOM     18  H   UNL     1      -8.657  -1.739  -1.203  0.00  0.00    +0.065 HD
ATOM     19  H   UNL     1      -5.291   0.477  -2.618  0.00  0.00    +0.065 HD
BRANCH  10  20
ATOM     20  C   UNL     1      -5.101  -1.236   1.777  0.00  0.00    -0.039 C 
ATOM     21  H   UNL     1      -5.629  -2.013   2.341  0.00  0.00    +0.028 HD
ATOM     22  H   UNL     1      -5.123  -0.316   2.370  0.00  0.00    +0.028 HD
ATOM     23  H   UNL     1      -4.066  -1.575   1.663  0.00  0.00    +0.028 HD
ENDBRANCH  10  20
ENDBRANCH   1  16
BRANCH   5  24
ATOM     24  C   UNL     1      -2.228   3.223   1.434  0.00  0.00    +0.242 C 
ATOM     25  N   UNL     1      -1.642   4.321   0.873  0.00  0.00    -0.325 N 
ATOM     26  O   UNL     1      -2.719   3.246   2.554  0.00  0.00    -0.270 OA
ATOM     27  H   UNL     1      -1.704   5.186   1.395  0.00  0.00    +0.145 HD
ATOM     28  H   UNL     1      -1.454   4.385  -0.119  0.00  0.00    +0.145 HD
ENDBRANCH   5  24
BRANCH   4  29
ATOM     29  C   UNL     1       0.222   1.998   0.173  0.00  0.00    +0.039 C 
ATOM     30  H   UNL     1       0.307   2.528   1.127  0.00  0.00    +0.051 HD
ATOM     31  H   UNL     1       0.461   2.697  -0.636  0.00  0.00    +0.051 HD
BRANCH  29  32
ATOM     32  N   UNL     1       1.226   0.954   0.220  0.00  0.00    -0.295 N 
ATOM     33  C   UNL     1       2.550   1.301   0.136  0.00  0.00    +0.300 C 
ATOM     34  O   UNL     1       2.953   2.434  -0.083  0.00  0.00    -0.253 OA
ATOM     35  N   UNL     1       3.358   0.214   0.323  0.00  0.00    -0.293 N 
ATOM     36  H   UNL     1       1.046   0.204   0.871  0.00  0.00    +0.151 HD
ATOM     37  H   UNL     1       2.955  -0.685   0.107  0.00  0.00    +0.151 HD
BRANCH  35  38
ATOM     38  C   UNL     1       4.794   0.334   0.199  0.00  0.00    +0.050 C 
ATOM     39  C   UNL     1       5.267   0.420  -1.268  0.00  0.00    -0.026 C 
ATOM     40  C   UNL     1       5.499  -1.022  -1.745  0.00  0.00    -0.025 C 
ATOM     41  C   UNL     1       5.865  -1.702  -0.463  0.00  0.00    -0.042 A 
ATOM     42  C   UNL     1       6.469  -2.936  -0.295  0.00  0.00    -0.058 A 
ATOM     43  C   UNL     1       6.684  -3.395   1.006  0.00  0.00    -0.061 A 
ATOM     44  C   UNL     1       6.286  -2.628   2.113  0.00  0.00    -0.061 A 
ATOM     45  C   UNL     1       5.666  -1.390   1.933  0.00  0.00    -0.057 A 
ATOM     46  C   UNL     1       5.465  -0.936   0.639  0.00  0.00    -0.024 A 
ATOM     47  H   UNL     1       5.144   1.204   0.766  0.00  0.00    +0.055 HD
ATOM     48  H   UNL     1       4.578   0.962  -1.925  0.00  0.00    +0.029 HD
ATOM     49  H   UNL     1       6.228   0.954  -1.298  0.00  0.00    +0.029 HD
ATOM     50  H   UNL     1       4.580  -1.457  -2.153  0.00  0.00    +0.031 HD
ATOM     51  H   UNL     1       6.300  -1.071  -2.488  0.00  0.00    +0.031 HD
ATOM     52  H   UNL     1       6.771  -3.534  -1.148  0.00  0.00    +0.062 HD
ATOM     53  H   UNL     1       7.162  -4.359   1.166  0.00  0.00    +0.062 HD
ATOM     54  H   UNL     1       6.459  -3.005   3.118  0.00  0.00    +0.062 HD
ATOM     55  H   UNL     1       5.348  -0.801   2.788  0.00  0.00    +0.062 HD
ENDBRANCH  35  38
ENDBRANCH  29  32
ENDBRANCH   4  29
TORSDOF 6
