REMARK  Name = 
REMARK  8 active torsions:
REMARK  status: ('A' for Active; 'I' for Inactive)
REMARK    1  A    between atoms: C_1  and  N_2
REMARK    2  A    between atoms: C_6  and  S_7
REMARK    3  A    between atoms: S_7  and  C_8
REMARK    4  A    between atoms: C_8  and  C_9
REMARK    5  A    between atoms: C_8  and  C_12
REMARK    6  A    between atoms: C_9  and  C_10
REMARK    7  A    between atoms: C_14  and  N_18
REMARK    8  A    between atoms: C_19  and  C_21
REMARK                            x       y       z     vdW  Elec       q    Type
REMARK                         _______ _______ _______ _____ _____    ______ ____
ROOT
ATOM      1  C   UNL     1      -1.919   0.187   1.092  0.00  0.00    -0.032 A 
ATOM      2  C   UNL     1      -0.557   0.017   0.778  0.00  0.00    -0.036 A 
ATOM      3  C   UNL     1       0.197  -1.026   1.333  0.00  0.00    +0.034 A 
ATOM      4  C   UNL     1      -0.412  -1.895   2.235  0.00  0.00    -0.040 A 
ATOM      5  C   UNL     1      -1.759  -1.731   2.571  0.00  0.00    -0.060 A 
ATOM      6  C   UNL     1      -2.508  -0.699   2.004  0.00  0.00    -0.057 A 
ATOM      7  H   UNL     1      -0.087   0.691   0.065  0.00  0.00    +0.064 HD
ATOM      8  H   UNL     1       0.135  -2.711   2.698  0.00  0.00    +0.064 HD
ATOM      9  H   UNL     1      -2.220  -2.417   3.278  0.00  0.00    +0.062 HD
ATOM     10  H   UNL     1      -3.556  -0.597   2.281  0.00  0.00    +0.062 HD
ENDROOT
BRANCH   3  11
ATOM     11  N   UNL     1       1.536  -1.132   0.923  0.00  0.00    -0.280 N 
ATOM     12  C   UNL     1       2.457  -2.127   1.209  0.00  0.00    +0.268 C 
ATOM     13  O   UNL     1       2.256  -3.105   1.912  0.00  0.00    -0.268 OA
ATOM     14  H   UNL     1       1.888  -0.425   0.279  0.00  0.00    +0.155 HD
BRANCH  12  15
ATOM     15  C   UNL     1       3.777  -1.889   0.510  0.00  0.00    +0.145 A 
ATOM     16  N   UNL     1       3.778  -0.736  -0.248  0.00  0.00    -0.241 NA
ATOM     17  C   UNL     1       4.887  -0.424  -0.938  0.00  0.00    +0.072 A 
ATOM     18  C   UNL     1       4.907   0.727  -1.713  0.00  0.00    -0.036 A 
ATOM     19  C   UNL     1       6.034   1.090  -2.457  0.00  0.00    -0.060 A 
ATOM     20  C   UNL     1       7.170   0.290  -2.428  0.00  0.00    -0.061 A 
ATOM     21  C   UNL     1       7.177  -0.870  -1.654  0.00  0.00    -0.053 A 
ATOM     22  C   UNL     1       6.041  -1.233  -0.908  0.00  0.00    +0.002 A 
ATOM     23  C   UNL     1       6.015  -2.396  -0.126  0.00  0.00    -0.032 A 
ATOM     24  C   UNL     1       4.872  -2.742   0.599  0.00  0.00    +0.072 A 
ATOM     25 CL   UNL     1       4.941  -4.193   1.526  0.00  0.00    -0.081 Cl
ATOM     26  H   UNL     1       4.024   1.360  -1.747  0.00  0.00    +0.064 HD
ATOM     27  H   UNL     1       6.019   1.998  -3.058  0.00  0.00    +0.062 HD
ATOM     28  H   UNL     1       8.048   0.568  -3.006  0.00  0.00    +0.062 HD
ATOM     29  H   UNL     1       8.071  -1.490  -1.642  0.00  0.00    +0.062 HD
ATOM     30  H   UNL     1       6.892  -3.043  -0.083  0.00  0.00    +0.064 HD
ENDBRANCH  12  15
ENDBRANCH   3  11
BRANCH   1  31
ATOM     31  C   UNL     1      -2.758   1.279   0.435  0.00  0.00    +0.041 C 
ATOM     32  H   UNL     1      -3.751   1.272   0.903  0.00  0.00    +0.047 HD
BRANCH  31  33
ATOM     33  C   UNL     1      -2.142   2.684   0.637  0.00  0.00    -0.019 C 
ATOM     34  H   UNL     1      -1.248   2.815   0.015  0.00  0.00    +0.032 HD
ATOM     35  H   UNL     1      -1.799   2.775   1.677  0.00  0.00    +0.032 HD
BRANCH  33  36
ATOM     36  C   UNL     1      -3.098   3.811   0.339  0.00  0.00    -0.090 C 
ATOM     37  C   UNL     1      -3.487   4.725   1.237  0.00  0.00    -0.103 C 
ATOM     38  H   UNL     1      -3.484   3.882  -0.678  0.00  0.00    +0.057 HD
ATOM     39  H   UNL     1      -4.179   5.514   0.955  0.00  0.00    +0.053 HD
ATOM     40  H   UNL     1      -3.138   4.708   2.266  0.00  0.00    +0.053 HD
ENDBRANCH  33  36
ENDBRANCH  31  33
BRANCH  31  41
ATOM     41  S   UNL     1      -2.950   0.879  -1.360  0.00  0.00    -0.078 S 
BRANCH  41  46
ATOM     42  N   UNL     1      -5.409  -0.315  -1.328  0.00  0.00    -0.312 N 
ATOM     43  C   UNL     1      -6.706   0.077  -1.476  0.00  0.00    +0.120 A 
ATOM     44  N   UNL     1      -6.751   1.358  -1.770  0.00  0.00    -0.137 NA
ATOM     45  N   UNL     1      -5.457   1.828  -1.777  0.00  0.00    -0.123 NA
ATOM     46  C   UNL     1      -4.667   0.820  -1.482  0.00  0.00    +0.192 A 
ATOM     47  H   UNL     1      -7.559  -0.581  -1.369  0.00  0.00    +0.105 HD
BRANCH  42  48
ATOM     48  C   UNL     1      -4.961  -1.644  -1.012  0.00  0.00    +0.015 C 
ATOM     49  H   UNL     1      -5.790  -2.348  -1.132  0.00  0.00    +0.046 HD
ATOM     50  H   UNL     1      -4.617  -1.656   0.025  0.00  0.00    +0.046 HD
ATOM     51  H   UNL     1      -4.152  -1.930  -1.690  0.00  0.00    +0.046 HD
ENDBRANCH  42  48
ENDBRANCH  41  46
ENDBRANCH  31  41
ENDBRANCH   1  31
TORSDOF 8
