REMARK  Name = 
REMARK  12 active torsions:
REMARK  status: ('A' for Active; 'I' for Inactive)
REMARK    1  A    between atoms: C_1  and  C_2
REMARK    2  A    between atoms: C_2  and  C_3
REMARK    3  A    between atoms: C_2  and  C_10
REMARK    4  A    between atoms: C_3  and  C_4
REMARK    5  A    between atoms: N_8  and  C_9
REMARK    6  A    between atoms: C_12  and  N_13
REMARK    7  A    between atoms: C_14  and  C_16
REMARK    8  A    between atoms: C_19  and  C_20
REMARK    9  A    between atoms: C_20  and  C_21
REMARK   10  A    between atoms: C_20  and  C_22
REMARK   11  A    between atoms: C_20  and  C_23
REMARK   12  A    between atoms: C_27  and  C_28
REMARK                            x       y       z     vdW  Elec       q    Type
REMARK                         _______ _______ _______ _____ _____    ______ ____
ROOT
ATOM      1  C   UNL     1       3.161   0.203  -1.245  0.00  0.00    -0.042 A 
ATOM      2  C   UNL     1       1.804   0.258  -0.887  0.00  0.00    -0.037 A 
ATOM      3  C   UNL     1       0.804  -0.223  -1.741  0.00  0.00    +0.035 A 
ATOM      4  C   UNL     1       1.167  -0.767  -2.973  0.00  0.00    -0.029 A 
ATOM      5  C   UNL     1       2.517  -0.840  -3.356  0.00  0.00    +0.057 A 
ATOM      6  C   UNL     1       3.504  -0.347  -2.488  0.00  0.00    -0.047 A 
ATOM      7  H   UNL     1       1.525   0.687   0.074  0.00  0.00    +0.064 HD
ATOM      8  H   UNL     1       0.416  -1.147  -3.661  0.00  0.00    +0.064 HD
ATOM      9  H   UNL     1       4.550  -0.399  -2.792  0.00  0.00    +0.063 HD
ENDROOT
BRANCH   3  10
ATOM     10  N   UNL     1      -0.522  -0.129  -1.289  0.00  0.00    -0.280 N 
ATOM     11  C   UNL     1      -1.681  -0.522  -1.931  0.00  0.00    +0.267 C 
ATOM     12  O   UNL     1      -1.777  -1.022  -3.046  0.00  0.00    -0.268 OA
ATOM     13  H   UNL     1      -0.687   0.280  -0.372  0.00  0.00    +0.155 HD
BRANCH  11  14
ATOM     14  C   UNL     1      -2.909  -0.284  -1.102  0.00  0.00    +0.126 A 
ATOM     15  C   UNL     1      -4.159  -0.624  -1.590  0.00  0.00    -0.031 A 
ATOM     16  C   UNL     1      -5.269  -0.400  -0.775  0.00  0.00    -0.054 A 
ATOM     17  C   UNL     1      -5.117   0.156   0.502  0.00  0.00    -0.024 A 
ATOM     18  C   UNL     1      -3.806   0.463   0.885  0.00  0.00    +0.032 A 
ATOM     19  N   UNL     1      -2.702   0.263   0.128  0.00  0.00    -0.250 NA
ATOM     20  H   UNL     1      -4.274  -1.056  -2.579  0.00  0.00    +0.064 HD
ATOM     21  H   UNL     1      -6.245  -0.675  -1.167  0.00  0.00    +0.062 HD
ATOM     22  H   UNL     1      -3.594   0.897   1.861  0.00  0.00    +0.083 HD
BRANCH  17  23
ATOM     23  C   UNL     1      -6.292   0.407   1.458  0.00  0.00    -0.011 C 
BRANCH  23  24
ATOM     24  C   UNL     1      -6.122  -0.474   2.715  0.00  0.00    -0.056 C 
ATOM     25  H   UNL     1      -6.965  -0.347   3.405  0.00  0.00    +0.024 HD
ATOM     26  H   UNL     1      -5.211  -0.227   3.271  0.00  0.00    +0.024 HD
ATOM     27  H   UNL     1      -6.068  -1.537   2.449  0.00  0.00    +0.024 HD
ENDBRANCH  23  24
BRANCH  23  28
ATOM     28  C   UNL     1      -6.325   1.891   1.882  0.00  0.00    -0.056 C 
ATOM     29  H   UNL     1      -6.404   2.551   1.010  0.00  0.00    +0.024 HD
ATOM     30  H   UNL     1      -5.428   2.185   2.438  0.00  0.00    +0.024 HD
ATOM     31  H   UNL     1      -7.184   2.095   2.534  0.00  0.00    +0.024 HD
ENDBRANCH  23  28
BRANCH  23  32
ATOM     32  C   UNL     1      -7.672   0.077   0.846  0.00  0.00    -0.056 C 
ATOM     33  H   UNL     1      -7.749  -0.980   0.567  0.00  0.00    +0.024 HD
ATOM     34  H   UNL     1      -8.476   0.278   1.564  0.00  0.00    +0.024 HD
ATOM     35  H   UNL     1      -7.872   0.683  -0.045  0.00  0.00    +0.024 HD
ENDBRANCH  23  32
ENDBRANCH  17  23
ENDBRANCH  11  14
ENDBRANCH   3  10
BRANCH   5  36
ATOM     36  C   UNL     1       2.886  -1.416  -4.701  0.00  0.00    +0.417 C 
ATOM     37  F   UNL     1       4.198  -1.778  -4.787  0.00  0.00    -0.166 F 
ATOM     38  F   UNL     1       2.177  -2.536  -5.015  0.00  0.00    -0.166 F 
ATOM     39  F   UNL     1       2.677  -0.537  -5.720  0.00  0.00    -0.166 F 
ENDBRANCH   5  36
BRANCH   1  40
ATOM     40  C   UNL     1       4.219   0.723  -0.281  0.00  0.00    -0.012 C 
ATOM     41  H   UNL     1       3.703   1.153   0.588  0.00  0.00    +0.035 HD
BRANCH  40  42
ATOM     42  C   UNL     1       5.030   1.859  -0.916  0.00  0.00    -0.058 C 
ATOM     43  H   UNL     1       4.367   2.635  -1.313  0.00  0.00    +0.024 HD
ATOM     44  H   UNL     1       5.657   1.503  -1.738  0.00  0.00    +0.024 HD
ATOM     45  H   UNL     1       5.687   2.334  -0.179  0.00  0.00    +0.024 HD
ENDBRANCH  40  42
BRANCH  40  46
ATOM     46  C   UNL     1       5.112  -0.436   0.210  0.00  0.00    +0.014 C 
ATOM     47  H   UNL     1       5.805  -0.750  -0.581  0.00  0.00    +0.035 HD
ATOM     48  H   UNL     1       4.496  -1.318   0.433  0.00  0.00    +0.035 HD
BRANCH  46  49
ATOM     49  C   UNL     1       5.897  -0.070   1.424  0.00  0.00    +0.134 A 
ATOM     50  N   UNL     1       7.081   0.505   1.444  0.00  0.00    -0.135 NA
ATOM     51  N   UNL     1       7.452   0.680   2.756  0.00  0.00    -0.138 NA
ATOM     52  C   UNL     1       6.492   0.202   3.507  0.00  0.00    +0.120 A 
ATOM     53  N   UNL     1       5.495  -0.279   2.717  0.00  0.00    -0.320 N 
ATOM     54  H   UNL     1       6.478   0.186   4.588  0.00  0.00    +0.105 HD
BRANCH  53  55
ATOM     55  C   UNL     1       4.267  -0.872   3.170  0.00  0.00    +0.014 C 
ATOM     56  H   UNL     1       4.289  -1.937   2.926  0.00  0.00    +0.046 HD
ATOM     57  H   UNL     1       4.171  -0.742   4.250  0.00  0.00    +0.046 HD
ATOM     58  H   UNL     1       3.429  -0.384   2.670  0.00  0.00    +0.046 HD
ENDBRANCH  53  55
ENDBRANCH  46  49
ENDBRANCH  40  46
ENDBRANCH   1  40
TORSDOF 12
