REMARK  Name = 
REMARK  5 active torsions:
REMARK  status: ('A' for Active; 'I' for Inactive)
REMARK    1  A    between atoms: C_1  and  C_2
REMARK    2  A    between atoms: C_8  and  C_9
REMARK    3  A    between atoms: C_15  and  C_16
REMARK    4  A    between atoms: C_16  and  N_17
REMARK    5  A    between atoms: C_19  and  C_20
REMARK                            x       y       z     vdW  Elec       q    Type
REMARK                         _______ _______ _______ _____ _____    ______ ____
ROOT
ATOM      1  C   UNL     1      -0.781   1.200  -0.489  0.00  0.00    +0.248 C 
ATOM      2  O   UNL     1      -0.676   1.970  -1.439  0.00  0.00    -0.270 OA
ATOM      3  N   UNL     1      -0.169   1.418   0.731  0.00  0.00    -0.293 N 
ATOM      4  C   UNL     1      -0.446   0.719   1.981  0.00  0.00    +0.015 C 
ATOM      5  C   UNL     1       0.561   1.284   2.967  0.00  0.00    -0.035 C 
ATOM      6  C   UNL     1       0.748   2.720   2.494  0.00  0.00    -0.031 C 
ATOM      7  C   UNL     1       0.599   2.646   0.968  0.00  0.00    +0.046 C 
ATOM      8  H   UNL     1      -1.474   0.958   2.278  0.00  0.00    +0.046 HD
ATOM      9  H   UNL     1      -0.349  -0.363   1.873  0.00  0.00    +0.046 HD
ATOM     10  H   UNL     1       1.505   0.734   2.897  0.00  0.00    +0.028 HD
ATOM     11  H   UNL     1       0.213   1.222   4.002  0.00  0.00    +0.028 HD
ATOM     12  H   UNL     1       1.693   3.160   2.827  0.00  0.00    +0.028 HD
ATOM     13  H   UNL     1      -0.062   3.336   2.906  0.00  0.00    +0.028 HD
ATOM     14  H   UNL     1      -0.018   3.494   0.641  0.00  0.00    +0.052 HD
ENDROOT
BRANCH   1  21
ATOM     15  C   UNL     1      -4.846  -1.372  -1.445  0.00  0.00    +0.042 A 
ATOM     16  N   UNL     1      -4.923  -2.744  -1.489  0.00  0.00    -0.279 N 
ATOM     17  N   UNL     1      -3.765  -3.382  -1.230  0.00  0.00    -0.154 NA
ATOM     18  C   UNL     1      -2.896  -2.395  -1.019  0.00  0.00    +0.181 A 
ATOM     19  N   UNL     1      -1.573  -2.511  -0.729  0.00  0.00    -0.234 NA
ATOM     20  C   UNL     1      -0.981  -1.284  -0.577  0.00  0.00    +0.042 A 
ATOM     21  C   UNL     1      -1.599  -0.011  -0.664  0.00  0.00    +0.056 A 
ATOM     22  C   UNL     1      -2.957   0.138  -0.982  0.00  0.00    -0.036 A 
ATOM     23  C   UNL     1      -3.532  -1.116  -1.137  0.00  0.00    +0.042 A 
ATOM     24  H   UNL     1      -5.739  -3.313  -1.691  0.00  0.00    +0.189 HD
ATOM     25  H   UNL     1       0.087  -1.347  -0.369  0.00  0.00    +0.084 HD
ATOM     26  H   UNL     1      -3.452   1.092  -1.090  0.00  0.00    +0.063 HD
BRANCH  15  27
ATOM     27  C   UNL     1      -6.015  -0.502  -1.701  0.00  0.00    -0.022 C 
ATOM     28  H   UNL     1      -6.912  -1.087  -1.931  0.00  0.00    +0.029 HD
ATOM     29  H   UNL     1      -6.231   0.116  -0.823  0.00  0.00    +0.029 HD
ATOM     30  H   UNL     1      -5.819   0.162  -2.549  0.00  0.00    +0.029 HD
ENDBRANCH  15  27
ENDBRANCH   1  21
BRANCH   7  31
ATOM     31  C   UNL     1       1.921   2.728   0.186  0.00  0.00    +0.062 C 
ATOM     32  H   UNL     1       2.469   3.637   0.458  0.00  0.00    +0.053 HD
ATOM     33  H   UNL     1       1.726   2.787  -0.891  0.00  0.00    +0.053 HD
BRANCH  31  34
ATOM     34  N   UNL     1       2.809   1.607   0.384  0.00  0.00    -0.250 N 
ATOM     35  C   UNL     1       2.924   0.484  -0.379  0.00  0.00    +0.049 A 
ATOM     36  C   UNL     1       3.909  -0.235   0.253  0.00  0.00    +0.086 A 
ATOM     37  N   UNL     1       4.364   0.462   1.337  0.00  0.00    -0.134 NA
ATOM     38  N   UNL     1       3.694   1.606   1.398  0.00  0.00    -0.065 NA
ATOM     39  H   UNL     1       2.322   0.305  -1.257  0.00  0.00    +0.085 HD
BRANCH  36  40
ATOM     40  C   UNL     1       4.465  -1.621  -0.153  0.00  0.00    +0.005 C 
ATOM     41  C   UNL     1       3.546  -2.675  -0.713  0.00  0.00    -0.044 C 
ATOM     42  C   UNL     1       4.556  -2.010  -1.605  0.00  0.00    -0.044 C 
ATOM     43  H   UNL     1       5.265  -1.967   0.495  0.00  0.00    +0.036 HD
ATOM     44  H   UNL     1       2.500  -2.439  -0.865  0.00  0.00    +0.027 HD
ATOM     45  H   UNL     1       3.724  -3.704  -0.420  0.00  0.00    +0.027 HD
ATOM     46  H   UNL     1       5.418  -2.589  -1.916  0.00  0.00    +0.027 HD
ATOM     47  H   UNL     1       4.196  -1.321  -2.359  0.00  0.00    +0.027 HD
ENDBRANCH  36  40
ENDBRANCH  31  34
ENDBRANCH   7  31
TORSDOF 5
