REMARK  Name = 
REMARK  10 active torsions:
REMARK  status: ('A' for Active; 'I' for Inactive)
REMARK    1  A    between atoms: C_1  and  C_2
REMARK    2  A    between atoms: C_4  and  O_38
REMARK    3  A    between atoms: C_7  and  C_9
REMARK    4  A    between atoms: N_14  and  C_17
REMARK    5  A    between atoms: C_21  and  C_23
REMARK    6  A    between atoms: C_23  and  C_24
REMARK    7  A    between atoms: C_23  and  C_25
REMARK    8  A    between atoms: C_25  and  C_26
REMARK    9  A    between atoms: C_27  and  C_31
REMARK   10  A    between atoms: C_32  and  C_34
REMARK                            x       y       z     vdW  Elec       q    Type
REMARK                         _______ _______ _______ _____ _____    ______ ____
ROOT
ATOM      1  C   UNL     1      -3.705  -0.602   0.588  0.00  0.00    +0.038 A 
ATOM      2  C   UNL     1      -2.462  -1.211   0.410  0.00  0.00    -0.037 A 
ATOM      3  C   UNL     1      -1.356  -0.504   0.836  0.00  0.00    +0.043 A 
ATOM      4  C   UNL     1      -1.445   0.745   1.454  0.00  0.00    -0.008 A 
ATOM      5  C   UNL     1      -0.066   1.225   1.781  0.00  0.00    +0.046 C 
ATOM      6  N   UNL     1       0.801   0.169   1.278  0.00  0.00    -0.263 N 
ATOM      7  C   UNL     1       0.059  -0.865   0.698  0.00  0.00    +0.251 C 
ATOM      8  O   UNL     1       0.405  -1.886   0.137  0.00  0.00    -0.270 OA
ATOM      9  C   UNL     1      -2.683   1.363   1.673  0.00  0.00    +0.043 A 
ATOM     10  C   UNL     1      -3.819   0.660   1.216  0.00  0.00    -0.039 A 
ATOM     11  H   UNL     1      -2.362  -2.186  -0.057  0.00  0.00    +0.063 HD
ATOM     12  H   UNL     1       0.062   1.318   2.865  0.00  0.00    +0.052 HD
ATOM     13  H   UNL     1       0.154   2.163   1.260  0.00  0.00    +0.052 HD
ATOM     14  H   UNL     1      -4.821   1.079   1.341  0.00  0.00    +0.063 HD
ENDROOT
BRANCH   1  20
ATOM     15  C   UNL     1      -5.626   0.458  -1.536  0.00  0.00    +0.026 C 
ATOM     16  C   UNL     1      -6.958   0.588  -2.299  0.00  0.00    -0.007 C 
ATOM     17  C   UNL     1      -7.950  -0.150  -1.412  0.00  0.00    +0.073 C 
ATOM     18  C   UNL     1      -7.115  -1.322  -0.895  0.00  0.00    +0.041 C 
ATOM     19  N   UNL     1      -5.780  -0.765  -0.735  0.00  0.00    -0.292 N 
ATOM     20  C   UNL     1      -4.916  -1.337   0.178  0.00  0.00    +0.247 C 
ATOM     21  O   UNL     1      -5.121  -2.424   0.712  0.00  0.00    -0.270 OA
ATOM     22  H   UNL     1      -5.512   1.304  -0.853  0.00  0.00    +0.050 HD
ATOM     23  H   UNL     1      -6.902   0.095  -3.279  0.00  0.00    +0.031 HD
ATOM     24  H   UNL     1      -7.222   1.639  -2.460  0.00  0.00    +0.031 HD
ATOM     25  H   UNL     1      -8.850  -0.474  -1.944  0.00  0.00    +0.061 HD
ATOM     26  H   UNL     1      -7.046  -2.126  -1.637  0.00  0.00    +0.049 HD
ATOM     27  H   UNL     1      -7.487  -1.722   0.054  0.00  0.00    +0.049 HD
BRANCH  15  28
ATOM     28  C   UNL     1      -4.454   0.409  -2.512  0.00  0.00    -0.046 C 
ATOM     29  H   UNL     1      -4.537  -0.448  -3.191  0.00  0.00    +0.025 HD
ATOM     30  H   UNL     1      -3.493   0.322  -1.999  0.00  0.00    +0.025 HD
ATOM     31  H   UNL     1      -4.424   1.323  -3.117  0.00  0.00    +0.025 HD
ENDBRANCH  15  28
BRANCH  17  32
ATOM     32  O   UNL     1      -8.351   0.719  -0.351  0.00  0.00    -0.390 OA
ATOM     33  H   UNL     1      -8.692   0.160   0.371  0.00  0.00    +0.210 HD
ENDBRANCH  17  32
ENDBRANCH   1  20
BRANCH   6  34
ATOM     34  C   UNL     1       2.218   0.244   1.379  0.00  0.00    +0.037 A 
ATOM     35  C   UNL     1       2.835   1.319   2.038  0.00  0.00    -0.040 A 
ATOM     36  C   UNL     1       4.225   1.387   2.168  0.00  0.00    -0.060 A 
ATOM     37  C   UNL     1       5.030   0.384   1.638  0.00  0.00    -0.058 A 
ATOM     38  C   UNL     1       4.453  -0.695   0.961  0.00  0.00    -0.042 A 
ATOM     39  C   UNL     1       3.050  -0.748   0.843  0.00  0.00    -0.037 A 
ATOM     40  H   UNL     1       2.260   2.127   2.479  0.00  0.00    +0.064 HD
ATOM     41  H   UNL     1       4.679   2.225   2.693  0.00  0.00    +0.062 HD
ATOM     42  H   UNL     1       6.109   0.455   1.759  0.00  0.00    +0.062 HD
ATOM     43  H   UNL     1       2.623  -1.594   0.313  0.00  0.00    +0.064 HD
BRANCH  38  44
ATOM     44  C   UNL     1       5.294  -1.825   0.382  0.00  0.00    -0.013 C 
ATOM     45  H   UNL     1       4.623  -2.526  -0.133  0.00  0.00    +0.035 HD
BRANCH  44  46
ATOM     46  C   UNL     1       5.966  -2.613   1.514  0.00  0.00    -0.058 C 
ATOM     47  H   UNL     1       6.471  -3.503   1.123  0.00  0.00    +0.024 HD
ATOM     48  H   UNL     1       5.230  -2.942   2.255  0.00  0.00    +0.024 HD
ATOM     49  H   UNL     1       6.718  -2.008   2.036  0.00  0.00    +0.024 HD
ENDBRANCH  44  46
BRANCH  44  50
ATOM     50  C   UNL     1       6.354  -1.355  -0.639  0.00  0.00    -0.004 C 
ATOM     51  H   UNL     1       6.984  -2.210  -0.921  0.00  0.00    +0.033 HD
ATOM     52  H   UNL     1       7.035  -0.624  -0.186  0.00  0.00    +0.033 HD
BRANCH  50  53
ATOM     53  C   UNL     1       5.765  -0.784  -1.891  0.00  0.00    +0.040 A 
ATOM     54  C   UNL     1       5.645   0.514  -2.359  0.00  0.00    -0.010 A 
ATOM     55  C   UNL     1       5.018   0.372  -3.619  0.00  0.00    +0.052 A 
ATOM     56  N   UNL     1       4.763  -0.899  -3.929  0.00  0.00    -0.182 NA
ATOM     57  N   UNL     1       5.210  -1.578  -2.861  0.00  0.00    -0.281 N 
ATOM     58  H   UNL     1       4.742   1.147  -4.323  0.00  0.00    +0.085 HD
ATOM     59  H   UNL     1       5.114  -2.589  -2.866  0.00  0.00    +0.189 HD
BRANCH  54  60
ATOM     60  C   UNL     1       6.065   1.777  -1.713  0.00  0.00    -0.037 C 
ATOM     61  H   UNL     1       6.982   1.640  -1.131  0.00  0.00    +0.028 HD
ATOM     62  H   UNL     1       6.261   2.549  -2.464  0.00  0.00    +0.028 HD
ATOM     63  H   UNL     1       5.279   2.141  -1.044  0.00  0.00    +0.028 HD
ENDBRANCH  54  60
ENDBRANCH  50  53
ENDBRANCH  44  50
ENDBRANCH  38  44
ENDBRANCH   6  34
BRANCH   9  64
ATOM     64  C   UNL     1      -2.745   2.749   2.284  0.00  0.00    +0.349 C 
ATOM     65  F   UNL     1      -2.566   3.706   1.327  0.00  0.00    -0.183 F 
ATOM     66  F   UNL     1      -1.738   2.953   3.186  0.00  0.00    -0.183 F 
ATOM     67 CL   UNL     1      -4.277   3.092   3.129  0.00  0.00    -0.042 Cl
ENDBRANCH   9  64
TORSDOF 10
