REMARK  Name = 
REMARK  6 active torsions:
REMARK  status: ('A' for Active; 'I' for Inactive)
REMARK    1  A    between atoms: C_1  and  O_2
REMARK    2  A    between atoms: O_2  and  C_3
REMARK    3  A    between atoms: C_5  and  C_6
REMARK    4  A    between atoms: C_8  and  C_9
REMARK    5  A    between atoms: C_13  and  C_15
REMARK    6  A    between atoms: C_19  and  N_20
REMARK                            x       y       z     vdW  Elec       q    Type
REMARK                         _______ _______ _______ _____ _____    ______ ____
ROOT
ATOM      1  C   UNL     1      -1.743   1.823   1.336  0.00  0.00    +0.076 C 
ATOM      2  C   UNL     1      -2.720   0.673   1.119  0.00  0.00    +0.002 C 
ATOM      3  C   UNL     1      -2.317   0.127  -0.257  0.00  0.00    +0.107 C 
ATOM      4  N   UNL     1      -0.878   0.382  -0.344  0.00  0.00    -0.283 N 
ATOM      5  C   UNL     1      -0.222   0.215  -1.552  0.00  0.00    +0.247 C 
ATOM      6  O   UNL     1      -0.783  -0.155  -2.578  0.00  0.00    -0.270 OA
ATOM      7  C   UNL     1      -0.445   1.274   0.730  0.00  0.00    +0.042 C 
ATOM      8  H   UNL     1      -1.603   2.080   2.392  0.00  0.00    +0.061 HD
ATOM      9  H   UNL     1      -2.572  -0.081   1.903  0.00  0.00    +0.031 HD
ATOM     10  H   UNL     1      -3.773   0.971   1.130  0.00  0.00    +0.031 HD
ATOM     11  H   UNL     1      -2.813   0.690  -1.057  0.00  0.00    +0.060 HD
ATOM     12  H   UNL     1       0.091   0.660   1.461  0.00  0.00    +0.049 HD
ATOM     13  H   UNL     1       0.206   2.065   0.348  0.00  0.00    +0.049 HD
ENDROOT
BRANCH   5  14
ATOM     14  C   UNL     1       1.234   0.485  -1.601  0.00  0.00    +0.039 A 
ATOM     15  C   UNL     1       1.732   1.293  -2.624  0.00  0.00    -0.050 A 
ATOM     16  C   UNL     1       3.099   1.548  -2.692  0.00  0.00    -0.059 A 
ATOM     17  C   UNL     1       3.969   0.986  -1.751  0.00  0.00    -0.038 A 
ATOM     18  C   UNL     1       3.479   0.149  -0.735  0.00  0.00    +0.048 A 
ATOM     19  C   UNL     1       2.101  -0.104  -0.670  0.00  0.00    -0.026 A 
ATOM     20  H   UNL     1       1.058   1.719  -3.364  0.00  0.00    +0.063 HD
ATOM     21  H   UNL     1       3.492   2.179  -3.486  0.00  0.00    +0.062 HD
ATOM     22  H   UNL     1       5.026   1.215  -1.857  0.00  0.00    +0.064 HD
ATOM     23  H   UNL     1       1.671  -0.766   0.075  0.00  0.00    +0.065 HD
BRANCH  18  24
ATOM     24  N   UNL     1       4.367  -0.439   0.215  0.00  0.00    -0.306 N 
ATOM     25  C   UNL     1       4.044  -1.296   1.246  0.00  0.00    +0.029 A 
ATOM     26  C   UNL     1       5.223  -1.584   1.892  0.00  0.00    +0.046 A 
ATOM     27  N   UNL     1       6.267  -0.934   1.304  0.00  0.00    -0.244 NA
ATOM     28  C   UNL     1       5.733  -0.265   0.306  0.00  0.00    +0.100 A 
ATOM     29  H   UNL     1       3.041  -1.641   1.444  0.00  0.00    +0.083 HD
ATOM     30  H   UNL     1       5.370  -2.227   2.751  0.00  0.00    +0.084 HD
ATOM     31  H   UNL     1       6.299   0.358  -0.371  0.00  0.00    +0.103 HD
ENDBRANCH  18  24
ENDBRANCH   5  14
BRANCH   3  32
ATOM     32  C   UNL     1      -2.654  -1.323  -0.366  0.00  0.00    +0.248 A 
ATOM     33  N   UNL     1      -3.746  -1.896  -0.827  0.00  0.00    -0.195 NA
ATOM     34  C   UNL     1      -3.479  -3.225  -0.625  0.00  0.00    +0.169 A 
ATOM     35  N   UNL     1      -2.313  -3.485  -0.021  0.00  0.00    -0.062 NA
ATOM     36  O   UNL     1      -1.756  -2.216   0.151  0.00  0.00    -0.336 OA
BRANCH  34  37
ATOM     37  C   UNL     1      -4.413  -4.292  -1.028  0.00  0.00    -0.001 C 
ATOM     38  H   UNL     1      -5.386  -3.875  -1.307  0.00  0.00    +0.031 HD
ATOM     39  H   UNL     1      -4.018  -4.839  -1.890  0.00  0.00    +0.031 HD
ATOM     40  H   UNL     1      -4.572  -5.001  -0.210  0.00  0.00    +0.031 HD
ENDBRANCH  34  37
ENDBRANCH   3  32
BRANCH   1  41
ATOM     41  O   UNL     1      -2.143   2.982   0.599  0.00  0.00    -0.378 OA
BRANCH  41  42
ATOM     42  C   UNL     1      -3.101   3.777   1.287  0.00  0.00    +0.037 C 
ATOM     43  H   UNL     1      -4.020   3.214   1.472  0.00  0.00    +0.052 HD
ATOM     44  H   UNL     1      -3.344   4.639   0.659  0.00  0.00    +0.052 HD
ATOM     45  H   UNL     1      -2.687   4.141   2.231  0.00  0.00    +0.052 HD
ENDBRANCH  41  42
ENDBRANCH   1  41
TORSDOF 6
