REMARK  Name = 
REMARK  9 active torsions:
REMARK  status: ('A' for Active; 'I' for Inactive)
REMARK    1  A    between atoms: C_1  and  C_2
REMARK    2  A    between atoms: C_2  and  C_3
REMARK    3  A    between atoms: C_2  and  C_10
REMARK    4  A    between atoms: C_3  and  C_4
REMARK    5  A    between atoms: N_8  and  C_9
REMARK    6  A    between atoms: N_16  and  C_17
REMARK    7  A    between atoms: C_24  and  N_26
REMARK    8  A    between atoms: C_31  and  C_38
REMARK    9  A    between atoms: C_33  and  C_34
REMARK                            x       y       z     vdW  Elec       q    Type
REMARK                         _______ _______ _______ _____ _____    ______ ____
ROOT
ATOM      1  C   UNL     1      -1.996   2.212   0.701  0.00  0.00    -0.038 A 
ATOM      2  C   UNL     1      -2.879   1.127   0.613  0.00  0.00    -0.018 A 
ATOM      3  C   UNL     1      -2.388  -0.152   0.402  0.00  0.00    +0.128 A 
ATOM      4  N   UNL     1      -3.187  -1.295   0.326  0.00  0.00    -0.254 N 
ATOM      5  C   UNL     1      -4.552  -1.386   0.339  0.00  0.00    +0.305 C 
ATOM      6  O   UNL     1      -5.341  -0.451   0.356  0.00  0.00    -0.252 OA
ATOM      7  N   UNL     1      -4.968  -2.702   0.363  0.00  0.00    -0.296 N 
ATOM      8  N   UNL     1      -1.070  -0.416   0.291  0.00  0.00    -0.217 NA
ATOM      9  C   UNL     1      -0.197   0.613   0.406  0.00  0.00    +0.130 A 
ATOM     10  C   UNL     1      -0.629   1.922   0.607  0.00  0.00    -0.018 A 
ATOM     11  H   UNL     1      -3.942   1.289   0.731  0.00  0.00    +0.065 HD
ATOM     12  H   UNL     1      -2.645  -2.136   0.229  0.00  0.00    +0.158 HD
ATOM     13  H   UNL     1      -4.301  -3.402   0.072  0.00  0.00    +0.151 HD
ATOM     14  H   UNL     1       0.101   2.719   0.664  0.00  0.00    +0.065 HD
ENDROOT
BRANCH   7  15
ATOM     15  C   UNL     1      -6.377  -3.061   0.288  0.00  0.00    +0.025 C 
ATOM     16  C   UNL     1      -6.623  -4.401   0.983  0.00  0.00    -0.034 C 
ATOM     17  C   UNL     1      -8.106  -4.775   0.990  0.00  0.00    -0.051 C 
ATOM     18  C   UNL     1      -8.877  -4.270  -0.231  0.00  0.00    -0.053 C 
ATOM     19  C   UNL     1      -7.969  -4.098  -1.441  0.00  0.00    -0.051 C 
ATOM     20  C   UNL     1      -6.853  -3.086  -1.176  0.00  0.00    -0.034 C 
ATOM     21  H   UNL     1      -6.946  -2.290   0.824  0.00  0.00    +0.050 HD
ATOM     22  H   UNL     1      -6.250  -4.374   2.016  0.00  0.00    +0.028 HD
ATOM     23  H   UNL     1      -6.053  -5.192   0.475  0.00  0.00    +0.028 HD
ATOM     24  H   UNL     1      -8.586  -4.375   1.892  0.00  0.00    +0.027 HD
ATOM     25  H   UNL     1      -8.191  -5.866   1.060  0.00  0.00    +0.027 HD
ATOM     26  H   UNL     1      -9.694  -4.964  -0.462  0.00  0.00    +0.027 HD
ATOM     27  H   UNL     1      -9.344  -3.305   0.010  0.00  0.00    +0.027 HD
ATOM     28  H   UNL     1      -7.522  -5.066  -1.698  0.00  0.00    +0.027 HD
ATOM     29  H   UNL     1      -8.552  -3.782  -2.313  0.00  0.00    +0.027 HD
ATOM     30  H   UNL     1      -6.022  -3.298  -1.859  0.00  0.00    +0.028 HD
ATOM     31  H   UNL     1      -7.203  -2.080  -1.441  0.00  0.00    +0.028 HD
ENDBRANCH   7  15
BRANCH   9  32
ATOM     32  N   UNL     1       1.170   0.288   0.320  0.00  0.00    -0.248 N 
ATOM     33  C   UNL     1       1.569  -1.049  -0.081  0.00  0.00    +0.048 C 
ATOM     34  C   UNL     1       3.063  -0.972  -0.067  0.00  0.00    -0.006 A 
ATOM     35  C   UNL     1       3.459   0.296   0.339  0.00  0.00    +0.043 A 
ATOM     36  C   UNL     1       4.789   0.661   0.454  0.00  0.00    -0.046 A 
ATOM     37  C   UNL     1       5.779  -0.289   0.148  0.00  0.00    -0.043 A 
ATOM     38  C   UNL     1       5.372  -1.577  -0.270  0.00  0.00    -0.046 A 
ATOM     39  C   UNL     1       4.011  -1.938  -0.385  0.00  0.00    +0.060 A 
ATOM     40  C   UNL     1       2.258   1.100   0.608  0.00  0.00    +0.253 C 
ATOM     41  O   UNL     1       2.319   2.238   1.035  0.00  0.00    -0.270 OA
ATOM     42  H   UNL     1       1.192  -1.263  -1.086  0.00  0.00    +0.052 HD
ATOM     43  H   UNL     1       1.211  -1.778   0.651  0.00  0.00    +0.052 HD
ATOM     44  H   UNL     1       5.038   1.670   0.776  0.00  0.00    +0.063 HD
ATOM     45  H   UNL     1       6.121  -2.325  -0.520  0.00  0.00    +0.063 HD
BRANCH  37  46
ATOM     46  C   UNL     1       7.244   0.118   0.279  0.00  0.00    -0.016 C 
ATOM     47  C   UNL     1       8.020  -0.687   1.337  0.00  0.00    -0.046 C 
ATOM     48  C   UNL     1       8.670  -1.973   0.829  0.00  0.00    -0.053 C 
ATOM     49  C   UNL     1       9.464  -1.742  -0.450  0.00  0.00    -0.053 C 
ATOM     50  C   UNL     1       8.611  -1.104  -1.539  0.00  0.00    -0.053 C 
ATOM     51  C   UNL     1       7.979   0.202  -1.070  0.00  0.00    -0.046 C 
ATOM     52  H   UNL     1       7.225   1.149   0.663  0.00  0.00    +0.035 HD
ATOM     53  H   UNL     1       8.824  -0.045   1.720  0.00  0.00    +0.027 HD
ATOM     54  H   UNL     1       7.383  -0.915   2.200  0.00  0.00    +0.027 HD
ATOM     55  H   UNL     1       7.911  -2.742   0.662  0.00  0.00    +0.027 HD
ATOM     56  H   UNL     1       9.337  -2.369   1.606  0.00  0.00    +0.027 HD
ATOM     57  H   UNL     1       9.867  -2.696  -0.808  0.00  0.00    +0.027 HD
ATOM     58  H   UNL     1      10.323  -1.096  -0.234  0.00  0.00    +0.027 HD
ATOM     59  H   UNL     1       9.236  -0.906  -2.418  0.00  0.00    +0.027 HD
ATOM     60  H   UNL     1       7.839  -1.807  -1.868  0.00  0.00    +0.027 HD
ATOM     61  H   UNL     1       8.789   0.937  -0.964  0.00  0.00    +0.027 HD
ATOM     62  H   UNL     1       7.312   0.590  -1.851  0.00  0.00    +0.027 HD
ENDBRANCH  37  46
BRANCH  39  63
ATOM     63  C   UNL     1       3.595  -3.311  -0.838  0.00  0.00    +0.418 C 
ATOM     64  F   UNL     1       2.817  -3.945   0.083  0.00  0.00    -0.166 F 
ATOM     65  F   UNL     1       2.861  -3.280  -1.984  0.00  0.00    -0.166 F 
ATOM     66  F   UNL     1       4.639  -4.149  -1.084  0.00  0.00    -0.166 F 
ENDBRANCH  39  63
ENDBRANCH   9  32
BRANCH   1  67
ATOM     67  C   UNL     1      -2.536   3.618   0.974  0.00  0.00    -0.012 C 
ATOM     68  H   UNL     1      -2.884   3.574   2.018  0.00  0.00    +0.035 HD
BRANCH  67  69
ATOM     69  C   UNL     1      -3.771   3.964   0.120  0.00  0.00    -0.058 C 
ATOM     70  H   UNL     1      -4.089   5.000   0.289  0.00  0.00    +0.024 HD
ATOM     71  H   UNL     1      -3.567   3.837  -0.949  0.00  0.00    +0.024 HD
ATOM     72  H   UNL     1      -4.628   3.331   0.369  0.00  0.00    +0.024 HD
ENDBRANCH  67  69
BRANCH  67  73
ATOM     73  C   UNL     1      -1.526   4.797   0.945  0.00  0.00    +0.014 C 
ATOM     74  H   UNL     1      -1.991   5.640   1.472  0.00  0.00    +0.035 HD
ATOM     75  H   UNL     1      -0.629   4.563   1.529  0.00  0.00    +0.035 HD
BRANCH  73  76
ATOM     76  C   UNL     1      -1.123   5.231  -0.428  0.00  0.00    +0.134 A 
ATOM     77  N   UNL     1      -0.575   4.480  -1.363  0.00  0.00    -0.135 NA
ATOM     78  N   UNL     1      -0.374   5.254  -2.479  0.00  0.00    -0.138 NA
ATOM     79  C   UNL     1      -0.797   6.465  -2.203  0.00  0.00    +0.120 A 
ATOM     80  N   UNL     1      -1.267   6.501  -0.928  0.00  0.00    -0.320 N 
ATOM     81  H   UNL     1      -0.780   7.313  -2.874  0.00  0.00    +0.105 HD
BRANCH  80  82
ATOM     82  C   UNL     1      -1.802   7.656  -0.259  0.00  0.00    +0.014 C 
ATOM     83  H   UNL     1      -2.825   7.438   0.055  0.00  0.00    +0.046 HD
ATOM     84  H   UNL     1      -1.804   8.507  -0.945  0.00  0.00    +0.046 HD
ATOM     85  H   UNL     1      -1.169   7.880   0.604  0.00  0.00    +0.046 HD
ENDBRANCH  80  82
ENDBRANCH  73  76
ENDBRANCH  67  73
ENDBRANCH   1  67
TORSDOF 9
