REMARK  Name = 
REMARK  7 active torsions:
REMARK  status: ('A' for Active; 'I' for Inactive)
REMARK    1  A    between atoms: C_1  and  C_2
REMARK    2  A    between atoms: C_2  and  C_3
REMARK    3  A    between atoms: C_2  and  C_10
REMARK    4  A    between atoms: C_3  and  C_4
REMARK    5  A    between atoms: N_8  and  C_9
REMARK    6  A    between atoms: C_14  and  N_16
REMARK    7  A    between atoms: C_24  and  C_28
REMARK                            x       y       z     vdW  Elec       q    Type
REMARK                         _______ _______ _______ _____ _____    ______ ____
ROOT
ATOM      1  C   UNL     1      -2.305   1.035   0.215  0.00  0.00    -0.042 A 
ATOM      2  C   UNL     1      -2.707   2.284   0.710  0.00  0.00    -0.058 A 
ATOM      3  C   UNL     1      -1.793   3.116   1.358  0.00  0.00    -0.060 A 
ATOM      4  C   UNL     1      -0.468   2.711   1.512  0.00  0.00    -0.040 A 
ATOM      5  C   UNL     1      -0.041   1.474   1.019  0.00  0.00    +0.035 A 
ATOM      6  C   UNL     1      -0.964   0.639   0.380  0.00  0.00    -0.037 A 
ATOM      7  H   UNL     1      -3.730   2.629   0.589  0.00  0.00    +0.062 HD
ATOM      8  H   UNL     1      -2.111   4.087   1.729  0.00  0.00    +0.062 HD
ATOM      9  H   UNL     1       0.225   3.382   2.015  0.00  0.00    +0.064 HD
ATOM     10  H   UNL     1      -0.658  -0.334   0.003  0.00  0.00    +0.064 HD
ENDROOT
BRANCH   5  11
ATOM     11  N   UNL     1       1.312   1.140   1.219  0.00  0.00    -0.269 N 
ATOM     12  C   UNL     1       2.045   0.145   0.577  0.00  0.00    +0.312 C 
ATOM     13  N   UNL     1       3.329   0.043   1.131  0.00  0.00    -0.234 N 
ATOM     14  C   UNL     1       3.432  -0.326   2.546  0.00  0.00    +0.057 C 
ATOM     15  C   UNL     1       4.862  -0.190   3.049  0.00  0.00    +0.106 C 
ATOM     16  O   UNL     1       5.757  -1.011   2.292  0.00  0.00    -0.487 OA
ATOM     17  C   UNL     1       5.585  -0.855   0.936  0.00  0.00    +0.161 A 
ATOM     18  C   UNL     1       6.658  -1.248   0.137  0.00  0.00    -0.003 A 
ATOM     19  C   UNL     1       6.581  -1.088  -1.251  0.00  0.00    +0.076 A 
ATOM     20  C   UNL     1       5.427  -0.516  -1.765  0.00  0.00    +0.042 A 
ATOM     21  N   UNL     1       4.369  -0.139  -1.011  0.00  0.00    -0.236 NA
ATOM     22  C   UNL     1       4.429  -0.347   0.324  0.00  0.00    +0.171 A 
ATOM     23  O   UNL     1       1.630  -0.570  -0.330  0.00  0.00    -0.252 OA
ATOM     24  H   UNL     1       1.892   1.841   1.652  0.00  0.00    +0.156 HD
ATOM     25  H   UNL     1       3.088  -1.368   2.632  0.00  0.00    +0.050 HD
ATOM     26  H   UNL     1       2.762   0.296   3.150  0.00  0.00    +0.050 HD
ATOM     27  H   UNL     1       4.923  -0.516   4.096  0.00  0.00    +0.071 HD
ATOM     28  H   UNL     1       5.207   0.853   3.009  0.00  0.00    +0.071 HD
ATOM     29  H   UNL     1       7.549  -1.669   0.599  0.00  0.00    +0.066 HD
ATOM     30  H   UNL     1       5.303  -0.339  -2.832  0.00  0.00    +0.084 HD
BRANCH  19  31
ATOM     31  C   UNL     1       7.707  -1.456  -2.164  0.00  0.00    +0.419 C 
ATOM     32  F   UNL     1       7.294  -1.819  -3.407  0.00  0.00    -0.166 F 
ATOM     33  F   UNL     1       8.449  -2.494  -1.703  0.00  0.00    -0.166 F 
ATOM     34  F   UNL     1       8.574  -0.428  -2.349  0.00  0.00    -0.166 F 
ENDBRANCH  19  31
ENDBRANCH   5  11
BRANCH   1  35
ATOM     35  C   UNL     1      -3.281   0.113  -0.510  0.00  0.00    -0.012 C 
ATOM     36  H   UNL     1      -2.746  -0.808  -0.787  0.00  0.00    +0.035 HD
BRANCH  35  37
ATOM     37  C   UNL     1      -3.741   0.766  -1.822  0.00  0.00    -0.058 C 
ATOM     38  H   UNL     1      -4.376   0.086  -2.401  0.00  0.00    +0.024 HD
ATOM     39  H   UNL     1      -4.311   1.685  -1.644  0.00  0.00    +0.024 HD
ATOM     40  H   UNL     1      -2.879   1.023  -2.452  0.00  0.00    +0.024 HD
ENDBRANCH  35  37
BRANCH  35  41
ATOM     41  C   UNL     1      -4.464  -0.282   0.403  0.00  0.00    +0.014 C 
ATOM     42  H   UNL     1      -4.073  -0.705   1.337  0.00  0.00    +0.035 HD
ATOM     43  H   UNL     1      -5.041   0.601   0.692  0.00  0.00    +0.035 HD
BRANCH  41  44
ATOM     44  C   UNL     1      -5.357  -1.301  -0.218  0.00  0.00    +0.134 A 
ATOM     45  N   UNL     1      -5.038  -2.549  -0.499  0.00  0.00    -0.135 NA
ATOM     46  N   UNL     1      -6.128  -3.150  -1.078  0.00  0.00    -0.138 NA
ATOM     47  C   UNL     1      -7.092  -2.261  -1.133  0.00  0.00    +0.120 A 
ATOM     48  N   UNL     1      -6.658  -1.089  -0.598  0.00  0.00    -0.320 N 
ATOM     49  H   UNL     1      -8.083  -2.418  -1.539  0.00  0.00    +0.105 HD
BRANCH  48  50
ATOM     50  C   UNL     1      -7.440   0.111  -0.460  0.00  0.00    +0.014 C 
ATOM     51  H   UNL     1      -7.670   0.246   0.604  0.00  0.00    +0.046 HD
ATOM     52  H   UNL     1      -8.369   0.016  -1.031  0.00  0.00    +0.046 HD
ATOM     53  H   UNL     1      -6.864   0.959  -0.838  0.00  0.00    +0.046 HD
ENDBRANCH  48  50
ENDBRANCH  41  44
ENDBRANCH  35  41
ENDBRANCH   1  35
TORSDOF 7
