REMARK  Name = 
REMARK  10 active torsions:
REMARK  status: ('A' for Active; 'I' for Inactive)
REMARK    1  A    between atoms: C_1  and  C_2
REMARK    2  A    between atoms: C_2  and  C_3
REMARK    3  A    between atoms: C_3  and  N_4
REMARK    4  A    between atoms: C_5  and  S_6
REMARK    5  A    between atoms: S_6  and  C_7
REMARK    6  A    between atoms: C_7  and  C_8
REMARK    7  A    between atoms: C_8  and  C_10
REMARK    8  A    between atoms: N_12  and  C_13
REMARK    9  A    between atoms: C_13  and  C_14
REMARK   10  A    between atoms: C_16  and  C_17
REMARK                            x       y       z     vdW  Elec       q    Type
REMARK                         _______ _______ _______ _____ _____    ______ ____
ROOT
ATOM      1  N   UNL     1      -2.309  -1.013  -1.255  0.00  0.00    -0.287 N 
ATOM      2  C   UNL     1      -1.058  -0.498  -0.893  0.00  0.00    +0.173 A 
ATOM      3  N   UNL     1      -0.866   0.489  -0.073  0.00  0.00    -0.216 NA
ATOM      4  C   UNL     1      -1.988   1.029   0.452  0.00  0.00    +0.117 A 
ATOM      5  S   UNL     1      -1.922   2.359   1.548  0.00  0.00    -0.073 S 
ATOM      6  C   UNL     1      -3.590   2.363   1.672  0.00  0.00    -0.004 A 
ATOM      7  C   UNL     1      -4.208   1.400   0.923  0.00  0.00    -0.023 A 
ATOM      8  C   UNL     1      -3.281   0.616   0.207  0.00  0.00    +0.076 A 
ATOM      9  C   UNL     1      -3.486  -0.496  -0.692  0.00  0.00    +0.263 A 
ATOM     10  O   UNL     1      -4.610  -0.938  -0.918  0.00  0.00    -0.267 OA
ATOM     11  C   UNL     1      -5.681   1.456   1.083  0.00  0.00    -0.026 C 
ATOM     12  C   UNL     1      -5.883   2.837   1.786  0.00  0.00    -0.045 C 
ATOM     13  C   UNL     1      -4.520   3.214   2.448  0.00  0.00    -0.021 C 
ATOM     14  H   UNL     1      -6.029   0.643   1.728  0.00  0.00    +0.031 HD
ATOM     15  H   UNL     1      -6.214   1.418   0.129  0.00  0.00    +0.031 HD
ATOM     16  H   UNL     1      -6.130   3.590   1.026  0.00  0.00    +0.027 HD
ATOM     17  H   UNL     1      -6.705   2.818   2.509  0.00  0.00    +0.027 HD
ATOM     18  H   UNL     1      -4.315   4.283   2.349  0.00  0.00    +0.032 HD
ATOM     19  H   UNL     1      -4.516   2.933   3.506  0.00  0.00    +0.032 HD
ENDROOT
BRANCH   1  20
ATOM     20  C   UNL     1      -2.493  -2.148  -2.168  0.00  0.00    +0.028 C 
ATOM     21  H   UNL     1      -3.452  -2.038  -2.689  0.00  0.00    +0.049 HD
ATOM     22  H   UNL     1      -1.731  -2.137  -2.952  0.00  0.00    +0.049 HD
BRANCH  20  23
ATOM     23  C   UNL     1      -2.479  -3.484  -1.419  0.00  0.00    -0.038 C 
ATOM     24  H   UNL     1      -1.539  -3.607  -0.871  0.00  0.00    +0.028 HD
ATOM     25  H   UNL     1      -3.281  -3.502  -0.671  0.00  0.00    +0.028 HD
BRANCH  23  26
ATOM     26  C   UNL     1      -2.659  -4.656  -2.371  0.00  0.00    -0.064 C 
ATOM     27  H   UNL     1      -1.848  -4.693  -3.104  0.00  0.00    +0.023 HD
ATOM     28  H   UNL     1      -2.656  -5.599  -1.816  0.00  0.00    +0.023 HD
ATOM     29  H   UNL     1      -3.608  -4.582  -2.910  0.00  0.00    +0.023 HD
ENDBRANCH  23  26
ENDBRANCH  20  23
ENDBRANCH   1  20
BRANCH   2  30
ATOM     30  S   UNL     1       0.368  -1.244  -1.604  0.00  0.00    -0.080 S 
BRANCH  30  31
ATOM     31  C   UNL     1       1.696  -0.315  -0.775  0.00  0.00    +0.066 C 
ATOM     32  H   UNL     1       1.608  -0.460   0.306  0.00  0.00    +0.046 HD
ATOM     33  H   UNL     1       1.595   0.747  -1.024  0.00  0.00    +0.046 HD
BRANCH  31  34
ATOM     34  C   UNL     1       3.081  -0.779  -1.209  0.00  0.00    +0.195 C 
ATOM     35  O   UNL     1       3.270  -1.699  -2.005  0.00  0.00    -0.289 OA
BRANCH  34  36
ATOM     36  C   UNL     1       4.216  -0.065  -0.617  0.00  0.00    +0.151 A 
ATOM     37  N   UNL     1       4.069   0.934   0.273  0.00  0.00    -0.149 NA
ATOM     38  N   UNL     1       5.346   1.272   0.530  0.00  0.00    -0.183 N 
ATOM     39  N   UNL     1       6.314   0.590  -0.106  0.00  0.00    -0.157 NA
ATOM     40  C   UNL     1       5.602  -0.271  -0.846  0.00  0.00    +0.091 A 
BRANCH  40  41
ATOM     41  C   UNL     1       6.267  -1.251  -1.734  0.00  0.00    -0.018 C 
ATOM     42  H   UNL     1       7.356  -1.139  -1.710  0.00  0.00    +0.029 HD
ATOM     43  H   UNL     1       5.939  -1.117  -2.770  0.00  0.00    +0.029 HD
ATOM     44  H   UNL     1       6.028  -2.273  -1.423  0.00  0.00    +0.029 HD
ENDBRANCH  40  41
BRANCH  38  45
ATOM     45  C   UNL     1       5.668   2.325   1.472  0.00  0.00    +0.058 C 
ATOM     46  H   UNL     1       4.890   3.092   1.390  0.00  0.00    +0.052 HD
ATOM     47  H   UNL     1       6.618   2.773   1.160  0.00  0.00    +0.052 HD
BRANCH  45  48
ATOM     48  C   UNL     1       5.763   1.805   2.895  0.00  0.00    -0.044 C 
ATOM     49  H   UNL     1       6.537   1.035   2.983  0.00  0.00    +0.025 HD
ATOM     50  H   UNL     1       6.012   2.620   3.582  0.00  0.00    +0.025 HD
ATOM     51  H   UNL     1       4.814   1.364   3.218  0.00  0.00    +0.025 HD
ENDBRANCH  45  48
ENDBRANCH  38  45
ENDBRANCH  34  36
ENDBRANCH  31  34
ENDBRANCH  30  31
ENDBRANCH   2  30
TORSDOF 10
