REMARK  Name = 
REMARK  8 active torsions:
REMARK  status: ('A' for Active; 'I' for Inactive)
REMARK    1  A    between atoms: C_1  and  N_2
REMARK    2  A    between atoms: C_4  and  C_5
REMARK    3  A    between atoms: C_5  and  N_6
REMARK    4  A    between atoms: N_6  and  C_7
REMARK    5  A    between atoms: C_9  and  C_10
REMARK    6  A    between atoms: C_10  and  N_11
REMARK    7  A    between atoms: C_15  and  C_16
REMARK    8  A    between atoms: C_23  and  O_24
REMARK                            x       y       z     vdW  Elec       q    Type
REMARK                         _______ _______ _______ _____ _____    ______ ____
ROOT
ATOM      1  C   UNL     1       1.360  -0.566  -0.704  0.00  0.00    +0.034 C 
ATOM      2  C   UNL     1       0.251  -0.365   0.328  0.00  0.00    -0.031 C 
ATOM      3  C   UNL     1      -0.967  -0.979  -0.369  0.00  0.00    -0.019 C 
ATOM      4  C   UNL     1      -0.408  -2.207  -1.110  0.00  0.00    -0.021 C 
ATOM      5  C   UNL     1       1.113  -2.020  -1.154  0.00  0.00    +0.071 C 
ATOM      6  H   UNL     1       1.211   0.102  -1.564  0.00  0.00    +0.049 HD
ATOM      7  H   UNL     1       0.477  -0.896   1.261  0.00  0.00    +0.028 HD
ATOM      8  H   UNL     1       0.085   0.690   0.566  0.00  0.00    +0.028 HD
ATOM      9  H   UNL     1      -1.320  -0.265  -1.125  0.00  0.00    +0.032 HD
ATOM     10  H   UNL     1      -0.847  -2.291  -2.110  0.00  0.00    +0.029 HD
ATOM     11  H   UNL     1      -0.638  -3.137  -0.577  0.00  0.00    +0.029 HD
ATOM     12  H   UNL     1       1.586  -2.738  -0.471  0.00  0.00    +0.061 HD
ENDROOT
BRANCH   3  13
ATOM     13  C   UNL     1      -2.099  -1.295   0.609  0.00  0.00    +0.028 C 
ATOM     14  H   UNL     1      -1.829  -2.128   1.269  0.00  0.00    +0.049 HD
ATOM     15  H   UNL     1      -2.301  -0.435   1.258  0.00  0.00    +0.049 HD
BRANCH  13  16
ATOM     16  N   UNL     1      -3.343  -1.648  -0.052  0.00  0.00    -0.330 N 
ATOM     17  C   UNL     1      -3.745  -2.923  -0.346  0.00  0.00    +0.025 A 
ATOM     18  C   UNL     1      -4.978  -2.783  -0.930  0.00  0.00    +0.046 A 
ATOM     19  N   UNL     1      -5.340  -1.464  -0.986  0.00  0.00    -0.236 NA
ATOM     20  C   UNL     1      -4.344  -0.785  -0.449  0.00  0.00    +0.141 A 
ATOM     21  H   UNL     1      -3.143  -3.794  -0.128  0.00  0.00    +0.082 HD
ATOM     22  H   UNL     1      -5.628  -3.561  -1.311  0.00  0.00    +0.084 HD
BRANCH  20  23
ATOM     23  C   UNL     1      -4.305   0.664  -0.288  0.00  0.00    +0.017 A 
ATOM     24  C   UNL     1      -4.846   1.259   0.858  0.00  0.00    -0.051 A 
ATOM     25  C   UNL     1      -4.801   2.645   1.020  0.00  0.00    -0.061 A 
ATOM     26  C   UNL     1      -4.219   3.442   0.035  0.00  0.00    -0.062 A 
ATOM     27  C   UNL     1      -3.688   2.857  -1.116  0.00  0.00    -0.061 A 
ATOM     28  C   UNL     1      -3.737   1.472  -1.280  0.00  0.00    -0.051 A 
ATOM     29  H   UNL     1      -5.314   0.643   1.622  0.00  0.00    +0.062 HD
ATOM     30  H   UNL     1      -5.229   3.102   1.908  0.00  0.00    +0.062 HD
ATOM     31  H   UNL     1      -4.190   4.522   0.157  0.00  0.00    +0.062 HD
ATOM     32  H   UNL     1      -3.246   3.481  -1.889  0.00  0.00    +0.062 HD
ATOM     33  H   UNL     1      -3.344   1.024  -2.190  0.00  0.00    +0.062 HD
ENDBRANCH  20  23
ENDBRANCH  13  16
ENDBRANCH   3  13
BRANCH   1  34
ATOM     34  N   UNL     1       2.715  -0.380  -0.179  0.00  0.00    -0.305 NA
ATOM     35  H   UNL     1       3.391  -0.619  -0.907  0.00  0.00    +0.123 HD
BRANCH  34  36
ATOM     36  C   UNL     1       2.974   1.015   0.199  0.00  0.00    +0.042 C 
ATOM     37  H   UNL     1       2.731   1.698  -0.624  0.00  0.00    +0.049 HD
ATOM     38  H   UNL     1       2.375   1.300   1.071  0.00  0.00    +0.049 HD
BRANCH  36  41
ATOM     39  N   UNL     1       6.380   1.216   1.424  0.00  0.00    -0.254 N 
ATOM     40  C   UNL     1       5.071   1.015   1.737  0.00  0.00    +0.050 A 
ATOM     41  C   UNL     1       4.419   1.145   0.529  0.00  0.00    +0.097 A 
ATOM     42  N   UNL     1       5.343   1.416  -0.450  0.00  0.00    -0.133 NA
ATOM     43  N   UNL     1       6.543   1.462   0.114  0.00  0.00    -0.066 NA
ATOM     44  H   UNL     1       4.725   0.793   2.736  0.00  0.00    +0.085 HD
BRANCH  39  45
ATOM     45  C   UNL     1       7.519   1.190   2.301  0.00  0.00    +0.032 C 
ATOM     46  H   UNL     1       7.182   1.018   3.327  0.00  0.00    +0.047 HD
ATOM     47  H   UNL     1       8.032   2.154   2.235  0.00  0.00    +0.047 HD
ATOM     48  H   UNL     1       8.183   0.379   1.986  0.00  0.00    +0.047 HD
ENDBRANCH  39  45
ENDBRANCH  36  41
ENDBRANCH  34  36
ENDBRANCH   1  34
BRANCH   5  49
ATOM     49  O   UNL     1       1.607  -2.256  -2.462  0.00  0.00    -0.390 OA
ATOM     50  H   UNL     1       2.575  -2.170  -2.421  0.00  0.00    +0.210 HD
ENDBRANCH   5  49
TORSDOF 8
