REMARK  Name = 
REMARK  8 active torsions:
REMARK  status: ('A' for Active; 'I' for Inactive)
REMARK    1  A    between atoms: C_1  and  C_2
REMARK    2  A    between atoms: C_4  and  C_11
REMARK    3  A    between atoms: C_6  and  C_8
REMARK    4  A    between atoms: N_13  and  C_14
REMARK    5  A    between atoms: C_18  and  C_20
REMARK    6  A    between atoms: C_20  and  C_21
REMARK    7  A    between atoms: C_20  and  C_22
REMARK    8  A    between atoms: C_22  and  C_23
REMARK                            x       y       z     vdW  Elec       q    Type
REMARK                         _______ _______ _______ _____ _____    ______ ____
ROOT
ATOM      1  C   UNL     1       0.296   0.426   1.587  0.00  0.00    +0.034 A 
ATOM      2  C   UNL     1       0.729   0.899   2.828  0.00  0.00    -0.040 A 
ATOM      3  C   UNL     1       2.004   0.569   3.292  0.00  0.00    -0.060 A 
ATOM      4  C   UNL     1       2.858  -0.225   2.521  0.00  0.00    -0.058 A 
ATOM      5  C   UNL     1       2.444  -0.707   1.273  0.00  0.00    -0.042 A 
ATOM      6  C   UNL     1       1.151  -0.386   0.823  0.00  0.00    -0.037 A 
ATOM      7  H   UNL     1       0.081   1.503   3.463  0.00  0.00    +0.064 HD
ATOM      8  H   UNL     1       2.332   0.945   4.258  0.00  0.00    +0.062 HD
ATOM      9  H   UNL     1       3.848  -0.453   2.907  0.00  0.00    +0.062 HD
ATOM     10  H   UNL     1       0.824  -0.745  -0.155  0.00  0.00    +0.064 HD
ENDROOT
BRANCH   1  13
ATOM     11  C   UNL     1      -1.854   1.702   1.446  0.00  0.00    +0.267 C 
ATOM     12  O   UNL     1      -1.692   2.564   2.306  0.00  0.00    -0.268 OA
ATOM     13  N   UNL     1      -0.971   0.709   1.048  0.00  0.00    -0.280 N 
ATOM     14  H   UNL     1      -1.233   0.202   0.204  0.00  0.00    +0.155 HD
BRANCH  11  17
ATOM     15  C   UNL     1      -4.621   2.824  -0.744  0.00  0.00    +0.042 A 
ATOM     16  C   UNL     1      -3.511   2.920   0.060  0.00  0.00    -0.010 A 
ATOM     17  C   UNL     1      -3.092   1.728   0.617  0.00  0.00    +0.129 A 
ATOM     18  N   UNL     1      -3.677   0.523   0.408  0.00  0.00    -0.227 NA
ATOM     19  C   UNL     1      -4.770   0.520  -0.370  0.00  0.00    +0.133 A 
ATOM     20  N   UNL     1      -5.234   1.641  -0.983  0.00  0.00    -0.237 NA
ATOM     21  H   UNL     1      -2.992   3.856   0.241  0.00  0.00    +0.066 HD
BRANCH  19  22
ATOM     22  C   UNL     1      -5.492  -0.805  -0.531  0.00  0.00    +0.019 C 
ATOM     23  C   UNL     1      -5.815  -1.353  -1.906  0.00  0.00    -0.043 C 
ATOM     24  C   UNL     1      -6.927  -0.877  -1.007  0.00  0.00    -0.043 C 
ATOM     25  H   UNL     1      -5.209  -1.550   0.209  0.00  0.00    +0.038 HD
ATOM     26  H   UNL     1      -5.697  -2.419  -2.065  0.00  0.00    +0.027 HD
ATOM     27  H   UNL     1      -5.587  -0.753  -2.785  0.00  0.00    +0.027 HD
ATOM     28  H   UNL     1      -7.577  -1.606  -0.527  0.00  0.00    +0.027 HD
ATOM     29  H   UNL     1      -7.431   0.051  -1.270  0.00  0.00    +0.027 HD
ENDBRANCH  19  22
BRANCH  15  30
ATOM     30  C   UNL     1      -5.173   4.036  -1.424  0.00  0.00    -0.022 C 
ATOM     31  H   UNL     1      -5.215   4.886  -0.735  0.00  0.00    +0.029 HD
ATOM     32  H   UNL     1      -6.191   3.852  -1.797  0.00  0.00    +0.029 HD
ATOM     33  H   UNL     1      -4.528   4.293  -2.272  0.00  0.00    +0.029 HD
ENDBRANCH  15  30
ENDBRANCH  11  17
ENDBRANCH   1  13
BRANCH   5  34
ATOM     34  C   UNL     1       3.367  -1.511   0.366  0.00  0.00    -0.013 C 
ATOM     35  H   UNL     1       2.771  -1.881  -0.480  0.00  0.00    +0.035 HD
BRANCH  34  36
ATOM     36  C   UNL     1       3.924  -2.748   1.082  0.00  0.00    -0.058 C 
ATOM     37  H   UNL     1       4.424  -3.417   0.375  0.00  0.00    +0.024 HD
ATOM     38  H   UNL     1       3.122  -3.312   1.566  0.00  0.00    +0.024 HD
ATOM     39  H   UNL     1       4.651  -2.481   1.858  0.00  0.00    +0.024 HD
ENDBRANCH  34  36
BRANCH  34  40
ATOM     40  C   UNL     1       4.488  -0.592  -0.172  0.00  0.00    +0.004 C 
ATOM     41  H   UNL     1       5.186  -0.345   0.639  0.00  0.00    +0.034 HD
ATOM     42  H   UNL     1       4.059   0.362  -0.510  0.00  0.00    +0.034 HD
BRANCH  40  43
ATOM     43  C   UNL     1       5.219  -1.179  -1.339  0.00  0.00    +0.095 C 
ATOM     44  N   UNL     1       4.639  -1.752  -2.381  0.00  0.00    -0.147 NA
ATOM     45  N   UNL     1       5.559  -2.182  -3.332  0.00  0.00    -0.150 NA
ATOM     46  C   UNL     1       6.797  -1.915  -2.967  0.00  0.00    +0.081 C 
ATOM     47  S   UNL     1       6.884  -1.102  -1.488  0.00  0.00    -0.094 S 
ATOM     48 CL   UNL     1       7.627  -2.581  -0.411  0.00  0.00    -0.057 Cl
ATOM     49  H   UNL     1       7.657  -2.156  -3.585  0.00  0.00    +0.092 HD
ATOM     50  H   UNL     1       7.551   0.023  -1.850  0.00  0.00    +0.109 HD
ENDBRANCH  40  43
ENDBRANCH  34  40
ENDBRANCH   5  34
TORSDOF 8
