REMARK  Name = 
REMARK  6 active torsions:
REMARK  status: ('A' for Active; 'I' for Inactive)
REMARK    1  A    between atoms: C_2  and  C_3
REMARK    2  A    between atoms: C_3  and  C_4
REMARK    3  A    between atoms: C_4  and  C_5
REMARK    4  A    between atoms: N_10  and  C_11
REMARK    5  A    between atoms: N_14  and  C_15
REMARK    6  A    between atoms: C_15  and  C_16
REMARK                            x       y       z     vdW  Elec       q    Type
REMARK                         _______ _______ _______ _____ _____    ______ ____
ROOT
ATOM      1  C   UNL     1       0.513   1.239   0.238  0.00  0.00    +0.020 C 
ATOM      2  C   UNL     1       0.297   0.545   1.586  0.00  0.00    -0.049 C 
ATOM      3  C   UNL     1      -0.737  -0.569   1.489  0.00  0.00    -0.089 C 
ATOM      4  N   UNL     1      -2.039  -0.035   0.946  0.00  0.00    +0.382 N 
ATOM      5  C   UNL     1      -1.858   0.643  -0.397  0.00  0.00    -0.089 C 
ATOM      6  C   UNL     1      -0.839   1.760  -0.264  0.00  0.00    -0.049 C 
ATOM      7  H   UNL     1       1.192   2.089   0.375  0.00  0.00    +0.050 HD
ATOM      8  H   UNL     1       1.241   0.130   1.957  0.00  0.00    +0.026 HD
ATOM      9  H   UNL     1      -0.037   1.284   2.325  0.00  0.00    +0.026 HD
ATOM     10  H   UNL     1      -0.942  -0.980   2.483  0.00  0.00    +0.006 HD
ATOM     11  H   UNL     1      -0.407  -1.379   0.828  0.00  0.00    +0.006 HD
ATOM     12  H   UNL     1      -2.390   0.676   1.599  0.00  0.00    -0.081 HD
ATOM     13  H   UNL     1      -2.824   1.060  -0.693  0.00  0.00    +0.006 HD
ATOM     14  H   UNL     1      -1.552  -0.120  -1.121  0.00  0.00    +0.006 HD
ATOM     15  H   UNL     1      -0.750   2.281  -1.220  0.00  0.00    +0.026 HD
ATOM     16  H   UNL     1      -1.216   2.507   0.447  0.00  0.00    +0.026 HD
ENDROOT
BRANCH   1  19
ATOM     17  O   UNL     1       1.127   1.725  -2.510  0.00  0.00    -0.276 OA
ATOM     18  C   UNL     1       1.527   0.702  -1.971  0.00  0.00    +0.213 C 
ATOM     19  N   UNL     1       1.181   0.324  -0.685  0.00  0.00    -0.313 N 
ATOM     20  H   UNL     1       1.886  -0.301  -0.280  0.00  0.00    +0.149 HD
BRANCH  18  21
ATOM     21  C   UNL     1       2.451  -0.277  -2.662  0.00  0.00    +0.026 C 
ATOM     22  H   UNL     1       2.255  -0.227  -3.740  0.00  0.00    +0.036 HD
ATOM     23  H   UNL     1       2.189  -1.296  -2.354  0.00  0.00    +0.036 HD
BRANCH  21  24
ATOM     24  C   UNL     1       3.930  -0.002  -2.393  0.00  0.00    -0.018 C 
ATOM     25  H   UNL     1       4.495  -0.815  -2.867  0.00  0.00    +0.029 HD
ATOM     26  H   UNL     1       4.236   0.924  -2.896  0.00  0.00    +0.029 HD
BRANCH  24  27
ATOM     27  C   UNL     1       4.313   0.094  -0.914  0.00  0.00    +0.059 C 
ATOM     28  C   UNL     1       5.805  -0.074  -0.662  0.00  0.00    -0.025 C 
ATOM     29  C   UNL     1       5.822  -0.685   0.717  0.00  0.00    -0.027 C 
ATOM     30  C   UNL     1       4.622  -1.601   0.656  0.00  0.00    +0.048 C 
ATOM     31  O   UNL     1       3.633  -0.919  -0.138  0.00  0.00    -0.377 OA
ATOM     32  H   UNL     1       3.985   1.060  -0.511  0.00  0.00    +0.060 HD
ATOM     33  H   UNL     1       6.354   0.871  -0.724  0.00  0.00    +0.029 HD
ATOM     34  H   UNL     1       6.254  -0.773  -1.378  0.00  0.00    +0.029 HD
ATOM     35  H   UNL     1       5.662   0.094   1.472  0.00  0.00    +0.029 HD
ATOM     36  H   UNL     1       6.751  -1.210   0.951  0.00  0.00    +0.029 HD
ATOM     37  H   UNL     1       4.209  -1.829   1.643  0.00  0.00    +0.056 HD
ATOM     38  H   UNL     1       4.865  -2.542   0.147  0.00  0.00    +0.056 HD
ENDBRANCH  24  27
ENDBRANCH  21  24
ENDBRANCH  18  21
ENDBRANCH   1  19
BRANCH   4  39
ATOM     39  C   UNL     1      -3.095  -1.122   0.903  0.00  0.00    -0.064 C 
ATOM     40  H   UNL     1      -2.811  -1.825   0.112  0.00  0.00    +0.011 HD
ATOM     41  H   UNL     1      -3.051  -1.658   1.859  0.00  0.00    +0.011 HD
BRANCH  39  42
ATOM     42  C   UNL     1      -4.489  -0.588   0.709  0.00  0.00    -0.064 A 
ATOM     43  C   UNL     1      -5.143   0.092   1.751  0.00  0.00    -0.058 A 
ATOM     44  C   UNL     1      -6.428   0.604   1.561  0.00  0.00    -0.026 A 
ATOM     45  C   UNL     1      -7.059   0.444   0.334  0.00  0.00    +0.123 A 
ATOM     46  F   UNL     1      -8.288   0.941   0.154  0.00  0.00    -0.205 F 
ATOM     47  C   UNL     1      -6.433  -0.230  -0.707  0.00  0.00    -0.026 A 
ATOM     48  C   UNL     1      -5.150  -0.749  -0.521  0.00  0.00    -0.058 A 
ATOM     49  H   UNL     1      -4.674   0.221   2.724  0.00  0.00    +0.062 HD
ATOM     50  H   UNL     1      -6.948   1.128   2.361  0.00  0.00    +0.065 HD
ATOM     51  H   UNL     1      -6.952  -0.348  -1.654  0.00  0.00    +0.065 HD
ATOM     52  H   UNL     1      -4.683  -1.284  -1.347  0.00  0.00    +0.062 HD
ENDBRANCH  39  42
ENDBRANCH   4  39
TORSDOF 6
