REMARK  Name = 
REMARK  10 active torsions:
REMARK  status: ('A' for Active; 'I' for Inactive)
REMARK    1  A    between atoms: C_1  and  C_2
REMARK    2  A    between atoms: C_2  and  C_3
REMARK    3  A    between atoms: C_2  and  C_10
REMARK    4  A    between atoms: C_3  and  C_4
REMARK    5  A    between atoms: N_8  and  C_9
REMARK    6  A    between atoms: C_14  and  C_16
REMARK    7  A    between atoms: C_18  and  C_19
REMARK    8  A    between atoms: C_23  and  C_24
REMARK    9  A    between atoms: C_30  and  N_31
REMARK   10  A    between atoms: C_38  and  C_39
REMARK                            x       y       z     vdW  Elec       q    Type
REMARK                         _______ _______ _______ _____ _____    ______ ____
ROOT
ATOM      1  C   UNL     1      -1.695   1.052  -2.042  0.00  0.00    -0.002 A 
ATOM      2  C   UNL     1      -0.460   1.171  -1.394  0.00  0.00    -0.015 A 
ATOM      3  C   UNL     1      -0.022   0.141  -0.577  0.00  0.00    +0.128 A 
ATOM      4  N   UNL     1       1.204   0.136   0.080  0.00  0.00    -0.265 N 
ATOM      5  C   UNL     1       2.224   1.054   0.034  0.00  0.00    +0.268 C 
ATOM      6  O   UNL     1       2.248   2.103  -0.601  0.00  0.00    -0.268 OA
ATOM      7  N   UNL     1      -0.747  -0.976  -0.361  0.00  0.00    -0.214 NA
ATOM      8  C   UNL     1      -1.950  -1.114  -0.982  0.00  0.00    +0.166 A 
ATOM      9  C   UNL     1      -2.443  -0.114  -1.821  0.00  0.00    +0.167 A 
ATOM     10  F   UNL     1      -3.651  -0.193  -2.392  0.00  0.00    -0.202 F 
ATOM     11  H   UNL     1       0.132   2.070  -1.509  0.00  0.00    +0.066 HD
ATOM     12  H   UNL     1       1.366  -0.692   0.646  0.00  0.00    +0.157 HD
ENDROOT
BRANCH   8  13
ATOM     13  N   UNL     1      -2.637  -2.313  -0.692  0.00  0.00    -0.245 N 
ATOM     14  C   UNL     1      -2.141  -3.166   0.377  0.00  0.00    +0.048 C 
ATOM     15  C   UNL     1      -3.128  -4.289   0.401  0.00  0.00    -0.006 A 
ATOM     16  C   UNL     1      -4.075  -4.094  -0.599  0.00  0.00    +0.042 A 
ATOM     17  C   UNL     1      -5.109  -4.984  -0.819  0.00  0.00    -0.049 A 
ATOM     18  C   UNL     1      -5.183  -6.108   0.009  0.00  0.00    -0.060 A 
ATOM     19  C   UNL     1      -4.231  -6.317   1.023  0.00  0.00    -0.050 A 
ATOM     20  C   UNL     1      -3.180  -5.406   1.234  0.00  0.00    +0.060 A 
ATOM     21  C   UNL     1      -3.750  -2.853  -1.321  0.00  0.00    +0.253 C 
ATOM     22  O   UNL     1      -4.383  -2.504  -2.300  0.00  0.00    -0.270 OA
ATOM     23  H   UNL     1      -2.153  -2.613   1.323  0.00  0.00    +0.052 HD
ATOM     24  H   UNL     1      -1.139  -3.535   0.130  0.00  0.00    +0.052 HD
ATOM     25  H   UNL     1      -5.827  -4.815  -1.616  0.00  0.00    +0.063 HD
ATOM     26  H   UNL     1      -5.981  -6.833  -0.138  0.00  0.00    +0.062 HD
ATOM     27  H   UNL     1      -4.311  -7.208   1.645  0.00  0.00    +0.062 HD
BRANCH  20  28
ATOM     28  C   UNL     1      -2.141  -5.613   2.302  0.00  0.00    +0.418 C 
ATOM     29  F   UNL     1      -2.299  -6.756   3.019  0.00  0.00    -0.166 F 
ATOM     30  F   UNL     1      -2.130  -4.591   3.205  0.00  0.00    -0.166 F 
ATOM     31  F   UNL     1      -0.885  -5.670   1.784  0.00  0.00    -0.166 F 
ENDBRANCH  20  28
ENDBRANCH   8  13
BRANCH   5  32
ATOM     32  C   UNL     1       3.411   0.642   0.856  0.00  0.00    +0.127 A 
ATOM     33  C   UNL     1       4.528   1.463   0.930  0.00  0.00    -0.028 A 
ATOM     34  C   UNL     1       5.644   1.056   1.673  0.00  0.00    -0.040 A 
ATOM     35  C   UNL     1       5.551  -0.193   2.308  0.00  0.00    -0.028 A 
ATOM     36  C   UNL     1       4.394  -0.976   2.202  0.00  0.00    +0.145 A 
ATOM     37  N   UNL     1       3.319  -0.566   1.474  0.00  0.00    -0.238 NA
ATOM     38  H   UNL     1       4.537   2.413   0.402  0.00  0.00    +0.064 HD
ATOM     39  H   UNL     1       6.395  -0.572   2.881  0.00  0.00    +0.064 HD
BRANCH  34  40
ATOM     40  C   UNL     1       6.872   1.943   1.732  0.00  0.00    -0.016 C 
ATOM     41  C   UNL     1       8.011   1.727   2.697  0.00  0.00    -0.046 C 
ATOM     42  C   UNL     1       8.195   1.399   1.245  0.00  0.00    -0.046 C 
ATOM     43  H   UNL     1       6.682   2.993   1.505  0.00  0.00    +0.035 HD
ATOM     44  H   UNL     1       7.979   0.913   3.409  0.00  0.00    +0.027 HD
ATOM     45  H   UNL     1       8.514   2.607   3.083  0.00  0.00    +0.027 HD
ATOM     46  H   UNL     1       8.265   0.356   0.963  0.00  0.00    +0.027 HD
ATOM     47  H   UNL     1       8.820   2.055   0.646  0.00  0.00    +0.027 HD
ENDBRANCH  34  40
BRANCH  36  48
ATOM     48  C   UNL     1       4.351  -2.345   2.871  0.00  0.00    +0.434 C 
ATOM     49  F   UNL     1       4.499  -3.367   1.980  0.00  0.00    -0.164 F 
ATOM     50  F   UNL     1       3.182  -2.583   3.529  0.00  0.00    -0.164 F 
ATOM     51  F   UNL     1       5.339  -2.525   3.799  0.00  0.00    -0.164 F 
ENDBRANCH  36  48
ENDBRANCH   5  32
BRANCH   1  52
ATOM     52  C   UNL     1      -2.270   2.138  -2.939  0.00  0.00    -0.009 C 
ATOM     53  H   UNL     1      -2.707   1.610  -3.800  0.00  0.00    +0.035 HD
BRANCH  52  54
ATOM     54  C   UNL     1      -1.227   3.081  -3.556  0.00  0.00    -0.058 C 
ATOM     55  H   UNL     1      -0.747   3.724  -2.812  0.00  0.00    +0.024 HD
ATOM     56  H   UNL     1      -0.442   2.512  -4.065  0.00  0.00    +0.024 HD
ATOM     57  H   UNL     1      -1.694   3.733  -4.302  0.00  0.00    +0.024 HD
ENDBRANCH  52  54
BRANCH  52  58
ATOM     58  C   UNL     1      -3.430   2.916  -2.276  0.00  0.00    +0.014 C 
ATOM     59  H   UNL     1      -3.901   3.557  -3.031  0.00  0.00    +0.035 HD
ATOM     60  H   UNL     1      -4.215   2.219  -1.951  0.00  0.00    +0.035 HD
BRANCH  58  61
ATOM     61  C   UNL     1      -3.024   3.730  -1.089  0.00  0.00    +0.134 A 
ATOM     62  N   UNL     1      -2.704   3.266   0.104  0.00  0.00    -0.135 NA
ATOM     63  N   UNL     1      -2.417   4.332   0.924  0.00  0.00    -0.138 NA
ATOM     64  C   UNL     1      -2.583   5.426   0.221  0.00  0.00    +0.120 A 
ATOM     65  N   UNL     1      -2.960   5.100  -1.047  0.00  0.00    -0.320 N 
ATOM     66  H   UNL     1      -2.450   6.438   0.580  0.00  0.00    +0.105 HD
BRANCH  65  67
ATOM     67  C   UNL     1      -3.256   6.029  -2.104  0.00  0.00    +0.014 C 
ATOM     68  H   UNL     1      -2.588   5.830  -2.944  0.00  0.00    +0.046 HD
ATOM     69  H   UNL     1      -3.098   7.051  -1.750  0.00  0.00    +0.046 HD
ATOM     70  H   UNL     1      -4.300   5.901  -2.394  0.00  0.00    +0.046 HD
ENDBRANCH  65  67
ENDBRANCH  58  61
ENDBRANCH  52  58
ENDBRANCH   1  52
TORSDOF 10
