REMARK  Name = 
REMARK  0 active torsions:
REMARK  status: ('A' for Active; 'I' for Inactive)
REMARK                            x       y       z     vdW  Elec       q    Type
REMARK                         _______ _______ _______ _____ _____    ______ ____
ROOT
ATOM      1  O   UNL     1      -1.231  -2.187   2.464  0.00  0.00    -0.244 OA
ATOM      2  C   UNL     1      -0.785  -1.438   1.601  0.00  0.00    +0.347 A 
ATOM      3  O   UNL     1       0.577  -1.329   1.364  0.00  0.00    -0.421 OA
ATOM      4  C   UNL     1       1.117  -0.456   0.363  0.00  0.00    +0.144 A 
ATOM      5  C   UNL     1       0.359   0.333  -0.440  0.00  0.00    +0.020 A 
ATOM      6  C   UNL     1      -1.028   0.201  -0.190  0.00  0.00    +0.061 A 
ATOM      7  N   UNL     1      -2.006   0.866  -0.868  0.00  0.00    -0.354 N 
ATOM      8  C   UNL     1      -3.241   0.501  -0.366  0.00  0.00    +0.048 A 
ATOM      9  C   UNL     1      -4.524   0.920  -0.739  0.00  0.00    -0.038 A 
ATOM     10  C   UNL     1      -5.610   0.374  -0.050  0.00  0.00    -0.060 A 
ATOM     11  C   UNL     1      -5.421  -0.554   0.971  0.00  0.00    -0.061 A 
ATOM     12  C   UNL     1      -4.134  -0.965   1.333  0.00  0.00    -0.052 A 
ATOM     13  C   UNL     1      -3.021  -0.430   0.656  0.00  0.00    +0.014 A 
ATOM     14  C   UNL     1      -1.615  -0.611   0.751  0.00  0.00    +0.092 A 
ATOM     15  C   UNL     1       1.015   1.222  -1.472  0.00  0.00    -0.018 C 
ATOM     16  C   UNL     1       2.430   1.660  -1.081  0.00  0.00    -0.023 C 
ATOM     17  C   UNL     1       3.238   0.532  -0.495  0.00  0.00    -0.036 A 
ATOM     18  C   UNL     1       4.635   0.531  -0.610  0.00  0.00    -0.058 A 
ATOM     19  C   UNL     1       5.387  -0.484  -0.021  0.00  0.00    -0.061 A 
ATOM     20  C   UNL     1       4.751  -1.495   0.695  0.00  0.00    -0.061 A 
ATOM     21  C   UNL     1       3.361  -1.493   0.826  0.00  0.00    -0.051 A 
ATOM     22  C   UNL     1       2.588  -0.483   0.236  0.00  0.00    +0.021 A 
ATOM     23  H   UNL     1      -1.871   1.526  -1.621  0.00  0.00    +0.166 HD
ATOM     24  H   UNL     1      -4.678   1.643  -1.534  0.00  0.00    +0.064 HD
ATOM     25  H   UNL     1      -6.620   0.679  -0.316  0.00  0.00    +0.062 HD
ATOM     26  H   UNL     1      -6.281  -0.967   1.494  0.00  0.00    +0.062 HD
ATOM     27  H   UNL     1      -3.995  -1.691   2.131  0.00  0.00    +0.062 HD
ATOM     28  H   UNL     1       0.415   2.124  -1.641  0.00  0.00    +0.032 HD
ATOM     29  H   UNL     1       1.044   0.676  -2.424  0.00  0.00    +0.032 HD
ATOM     30  H   UNL     1       2.375   2.463  -0.335  0.00  0.00    +0.032 HD
ATOM     31  H   UNL     1       2.929   2.070  -1.967  0.00  0.00    +0.032 HD
ATOM     32  H   UNL     1       5.144   1.323  -1.154  0.00  0.00    +0.062 HD
ATOM     33  H   UNL     1       6.470  -0.484  -0.115  0.00  0.00    +0.062 HD
ATOM     34  H   UNL     1       5.337  -2.285   1.158  0.00  0.00    +0.062 HD
ATOM     35  H   UNL     1       2.889  -2.292   1.394  0.00  0.00    +0.062 HD
ENDROOT
TORSDOF 0
