REMARK  Name = 
REMARK  4 active torsions:
REMARK  status: ('A' for Active; 'I' for Inactive)
REMARK    1  A    between atoms: C_1  and  C_2
REMARK    2  A    between atoms: N_4  and  C_5
REMARK    3  A    between atoms: C_9  and  S_11
REMARK    4  A    between atoms: S_11  and  N_14
REMARK                            x       y       z     vdW  Elec       q    Type
REMARK                         _______ _______ _______ _____ _____    ______ ____
ROOT
ATOM      1  C   UNL     1      -0.636  -0.393   0.139  0.00  0.00    +0.035 A 
ATOM      2  C   UNL     1      -0.281  -1.729   0.349  0.00  0.00    -0.040 A 
ATOM      3  C   UNL     1       1.050  -2.145   0.228  0.00  0.00    -0.058 A 
ATOM      4  C   UNL     1       2.045  -1.227  -0.099  0.00  0.00    -0.035 A 
ATOM      5  C   UNL     1       1.697   0.110  -0.294  0.00  0.00    +0.107 A 
ATOM      6  C   UNL     1       0.365   0.529  -0.187  0.00  0.00    -0.014 A 
ATOM      7  H   UNL     1      -1.022  -2.482   0.603  0.00  0.00    +0.064 HD
ATOM      8  H   UNL     1       1.303  -3.191   0.387  0.00  0.00    +0.062 HD
ATOM      9  H   UNL     1       3.076  -1.558  -0.199  0.00  0.00    +0.064 HD
ATOM     10  H   UNL     1       0.118   1.573  -0.360  0.00  0.00    +0.066 HD
ENDROOT
BRANCH   1  13
ATOM     11  C   UNL     1      -3.100  -0.617   0.538  0.00  0.00    +0.214 C 
ATOM     12  O   UNL     1      -3.181  -1.816   0.776  0.00  0.00    -0.276 OA
ATOM     13  N   UNL     1      -1.955   0.098   0.232  0.00  0.00    -0.286 N 
ATOM     14  H   UNL     1      -2.075   1.085   0.043  0.00  0.00    +0.155 HD
BRANCH  11  15
ATOM     15  C   UNL     1      -4.333   0.253   0.528  0.00  0.00    +0.012 C 
ATOM     16  H   UNL     1      -4.688   0.366  -0.500  0.00  0.00    +0.032 HD
ATOM     17  H   UNL     1      -4.120   1.237   0.955  0.00  0.00    +0.032 HD
ATOM     18  H   UNL     1      -5.114  -0.217   1.132  0.00  0.00    +0.032 HD
ENDBRANCH  11  15
ENDBRANCH   1  13
BRANCH   5  19
ATOM     19  S   UNL     1       2.947   1.277  -0.737  0.00  0.00    +0.056 S 
ATOM     20  O   UNL     1       2.319   2.477  -1.240  0.00  0.00    -0.153 OA
ATOM     21  O   UNL     1       4.002   0.597  -1.450  0.00  0.00    -0.153 OA
BRANCH  19  22
ATOM     22  N   UNL     1       3.584   1.689   0.760  0.00  0.00    -0.204 NA
ATOM     23  H   UNL     1       3.435   2.681   0.941  0.00  0.00    +0.144 HD
ATOM     24  H   UNL     1       4.563   1.405   0.810  0.00  0.00    +0.144 HD
ENDBRANCH  19  22
ENDBRANCH   5  19
TORSDOF 4
