REMARK  Name = 
REMARK  5 active torsions:
REMARK  status: ('A' for Active; 'I' for Inactive)
REMARK    1  A    between atoms: C_1  and  S_2
REMARK    2  A    between atoms: S_2  and  N_5
REMARK    3  A    between atoms: N_5  and  C_6
REMARK    4  A    between atoms: C_10  and  C_11
REMARK    5  A    between atoms: C_16  and  C_17
REMARK                            x       y       z     vdW  Elec       q    Type
REMARK                         _______ _______ _______ _____ _____    ______ ____
ROOT
ATOM      1  C   UNL     1      -1.037  -0.290  -0.880  0.00  0.00    +0.250 C 
ATOM      2  O   UNL     1      -0.413  -0.187   0.169  0.00  0.00    -0.270 OA
ATOM      3  N   UNL     1      -0.530  -0.345  -2.157  0.00  0.00    -0.261 N 
ATOM      4  C   UNL     1       0.808  -0.231  -2.415  0.00  0.00    +0.165 A 
ATOM      5  N   UNL     1       1.797  -0.005  -1.594  0.00  0.00    -0.225 NA
ATOM      6  C   UNL     1       2.988   0.034  -2.293  0.00  0.00    +0.082 A 
ATOM      7  C   UNL     1       2.864  -0.162  -3.656  0.00  0.00    +0.005 A 
ATOM      8  S   UNL     1       1.214  -0.402  -4.064  0.00  0.00    -0.060 S 
ATOM      9  H   UNL     1      -1.118  -0.542  -2.951  0.00  0.00    +0.157 HD
ATOM     10  H   UNL     1       3.636  -0.176  -4.411  0.00  0.00    +0.072 HD
ENDROOT
BRANCH   6  11
ATOM     11  C   UNL     1       4.243   0.273  -1.567  0.00  0.00    +0.026 A 
ATOM     12  C   UNL     1       5.505   0.367  -2.119  0.00  0.00    +0.012 A 
ATOM     13  N   UNL     1       6.394   0.594  -1.103  0.00  0.00    -0.360 N 
ATOM     14  C   UNL     1       5.738   0.649   0.104  0.00  0.00    +0.047 A 
ATOM     15  C   UNL     1       6.248   0.860   1.392  0.00  0.00    -0.038 A 
ATOM     16  C   UNL     1       5.344   0.867   2.457  0.00  0.00    -0.060 A 
ATOM     17  C   UNL     1       3.983   0.672   2.240  0.00  0.00    -0.061 A 
ATOM     18  C   UNL     1       3.491   0.464   0.946  0.00  0.00    -0.052 A 
ATOM     19  C   UNL     1       4.378   0.451  -0.153  0.00  0.00    +0.009 A 
ATOM     20  H   UNL     1       5.851   0.293  -3.141  0.00  0.00    +0.081 HD
ATOM     21  H   UNL     1       7.393   0.705  -1.215  0.00  0.00    +0.165 HD
ATOM     22  H   UNL     1       7.308   1.012   1.565  0.00  0.00    +0.064 HD
ATOM     23  H   UNL     1       5.708   1.028   3.469  0.00  0.00    +0.062 HD
ATOM     24  H   UNL     1       3.291   0.681   3.077  0.00  0.00    +0.062 HD
ATOM     25  H   UNL     1       2.424   0.313   0.796  0.00  0.00    +0.062 HD
ENDBRANCH   6  11
BRANCH   1  30
ATOM     26  C   UNL     1      -4.439  -1.178   0.471  0.00  0.00    +0.048 A 
ATOM     27  C   UNL     1      -5.284  -0.662  -0.510  0.00  0.00    -0.039 A 
ATOM     28  C   UNL     1      -4.752  -0.006  -1.622  0.00  0.00    -0.059 A 
ATOM     29  C   UNL     1      -3.370   0.127  -1.762  0.00  0.00    -0.050 A 
ATOM     30  C   UNL     1      -2.518  -0.413  -0.789  0.00  0.00    +0.039 A 
ATOM     31  C   UNL     1      -3.057  -1.058   0.333  0.00  0.00    -0.027 A 
ATOM     32  H   UNL     1      -6.364  -0.765  -0.420  0.00  0.00    +0.064 HD
ATOM     33  H   UNL     1      -5.422   0.410  -2.372  0.00  0.00    +0.062 HD
ATOM     34  H   UNL     1      -2.981   0.678  -2.614  0.00  0.00    +0.063 HD
ATOM     35  H   UNL     1      -2.387  -1.455   1.092  0.00  0.00    +0.064 HD
BRANCH  26  36
ATOM     36  N   UNL     1      -4.959  -1.823   1.629  0.00  0.00    -0.221 N 
ATOM     37  H   UNL     1      -4.347  -2.482   2.112  0.00  0.00    +0.173 HD
BRANCH  36  38
ATOM     38  S   UNL     1      -5.915  -0.948   2.708  0.00  0.00    +0.040 S 
ATOM     39  O   UNL     1      -7.010  -0.324   2.000  0.00  0.00    -0.155 OA
ATOM     40  O   UNL     1      -6.154  -1.837   3.826  0.00  0.00    -0.155 OA
BRANCH  38  41
ATOM     41  C   UNL     1      -4.796   0.323   3.266  0.00  0.00    +0.074 C 
ATOM     42  H   UNL     1      -5.300   0.889   4.053  0.00  0.00    +0.048 HD
ATOM     43  H   UNL     1      -3.897  -0.147   3.669  0.00  0.00    +0.048 HD
ATOM     44  H   UNL     1      -4.557   0.987   2.434  0.00  0.00    +0.048 HD
ENDBRANCH  38  41
ENDBRANCH  36  38
ENDBRANCH  26  36
ENDBRANCH   1  30
TORSDOF 5
