REMARK  Name = 
REMARK  4 active torsions:
REMARK  status: ('A' for Active; 'I' for Inactive)
REMARK    1  A    between atoms: C_1  and  C_2
REMARK    2  A    between atoms: C_7  and  C_8
REMARK    3  A    between atoms: C_13  and  O_14
REMARK    4  A    between atoms: C_13  and  C_15
REMARK                            x       y       z     vdW  Elec       q    Type
REMARK                         _______ _______ _______ _____ _____    ______ ____
ROOT
ATOM      1  C   UNL     1       0.724  -1.729  -0.788  0.00  0.00    +0.265 C 
ATOM      2  O   UNL     1       0.968  -2.727  -1.471  0.00  0.00    -0.268 OA
ATOM      3  N   UNL     1       1.748  -1.009  -0.156  0.00  0.00    -0.296 N 
ATOM      4  C   UNL     1       1.526   0.002   0.879  0.00  0.00    +0.018 C 
ATOM      5  C   UNL     1       2.720   0.131   1.818  0.00  0.00    +0.000 C 
ATOM      6  C   UNL     1       4.023   0.451   1.058  0.00  0.00    +0.163 C 
ATOM      7  C   UNL     1       4.031  -0.138  -0.366  0.00  0.00    +0.000 C 
ATOM      8  C   UNL     1       3.129  -1.359  -0.474  0.00  0.00    +0.018 C 
ATOM      9  H   UNL     1       1.337   0.957   0.376  0.00  0.00    +0.047 HD
ATOM     10  H   UNL     1       0.643  -0.264   1.470  0.00  0.00    +0.047 HD
ATOM     11  H   UNL     1       2.511   0.909   2.563  0.00  0.00    +0.031 HD
ATOM     12  H   UNL     1       2.821  -0.817   2.362  0.00  0.00    +0.031 HD
ATOM     13  H   UNL     1       5.051  -0.402  -0.673  0.00  0.00    +0.031 HD
ATOM     14  H   UNL     1       3.693   0.615  -1.090  0.00  0.00    +0.031 HD
ATOM     15  H   UNL     1       3.187  -1.769  -1.488  0.00  0.00    +0.047 HD
ATOM     16  H   UNL     1       3.441  -2.150   0.217  0.00  0.00    +0.047 HD
ENDROOT
BRANCH   1  22
ATOM     17  C   UNL     1      -4.937   1.292  -0.118  0.00  0.00    -0.050 A 
ATOM     18  C   UNL     1      -3.871   2.178   0.040  0.00  0.00    -0.057 A 
ATOM     19  C   UNL     1      -2.552   1.721  -0.057  0.00  0.00    -0.035 A 
ATOM     20  C   UNL     1      -2.257   0.392  -0.320  0.00  0.00    +0.072 A 
ATOM     21  N   UNL     1      -0.972   0.006  -0.400  0.00  0.00    -0.242 NA
ATOM     22  C   UNL     1      -0.712  -1.303  -0.657  0.00  0.00    +0.126 A 
ATOM     23  C   UNL     1      -1.706  -2.250  -0.860  0.00  0.00    -0.031 A 
ATOM     24  C   UNL     1      -3.033  -1.844  -0.773  0.00  0.00    -0.050 A 
ATOM     25  C   UNL     1      -3.332  -0.505  -0.497  0.00  0.00    +0.001 A 
ATOM     26  C   UNL     1      -4.660  -0.050  -0.400  0.00  0.00    -0.050 A 
ATOM     27  H   UNL     1      -4.054   3.232   0.239  0.00  0.00    +0.062 HD
ATOM     28  H   UNL     1      -1.735   2.427   0.072  0.00  0.00    +0.064 HD
ATOM     29  H   UNL     1      -1.456  -3.283  -1.085  0.00  0.00    +0.064 HD
ATOM     30  H   UNL     1      -3.825  -2.573  -0.926  0.00  0.00    +0.062 HD
ATOM     31  H   UNL     1      -5.483  -0.747  -0.546  0.00  0.00    +0.063 HD
BRANCH  17  32
ATOM     32  C   UNL     1      -6.354   1.780  -0.051  0.00  0.00    -0.040 C 
ATOM     33  H   UNL     1      -6.440   2.637   0.626  0.00  0.00    +0.028 HD
ATOM     34  H   UNL     1      -7.018   0.998   0.331  0.00  0.00    +0.028 HD
ATOM     35  H   UNL     1      -6.694   2.080  -1.047  0.00  0.00    +0.028 HD
ENDBRANCH  17  32
ENDBRANCH   1  22
BRANCH   6  36
ATOM     36  C   UNL     1       5.220  -0.107   1.869  0.00  0.00    +0.418 C 
ATOM     37  F   UNL     1       5.158  -1.458   1.958  0.00  0.00    -0.168 F 
ATOM     38  F   UNL     1       5.238   0.376   3.133  0.00  0.00    -0.168 F 
ATOM     39  F   UNL     1       6.405   0.199   1.294  0.00  0.00    -0.168 F 
ENDBRANCH   6  36
BRANCH   6  40
ATOM     40  O   UNL     1       4.126   1.890   0.937  0.00  0.00    -0.380 OA
ATOM     41  H   UNL     1       3.392   2.211   0.384  0.00  0.00    +0.211 HD
ENDBRANCH   6  40
TORSDOF 4
