REMARK  Name = 
REMARK  7 active torsions:
REMARK  status: ('A' for Active; 'I' for Inactive)
REMARK    1  A    between atoms: C_1  and  O_2
REMARK    2  A    between atoms: O_2  and  C_3
REMARK    3  A    between atoms: C_7  and  C_8
REMARK    4  A    between atoms: C_11  and  C_12
REMARK    5  A    between atoms: C_12  and  N_13
REMARK    6  A    between atoms: N_16  and  C_17
REMARK    7  A    between atoms: C_26  and  C_27
REMARK                            x       y       z     vdW  Elec       q    Type
REMARK                         _______ _______ _______ _____ _____    ______ ____
ROOT
ATOM      1  C   UNL     1       3.550   0.178   0.559  0.00  0.00    -0.017 A 
ATOM      2  C   UNL     1       2.919   1.349   1.000  0.00  0.00    -0.054 A 
ATOM      3  C   UNL     1       1.531   1.405   1.170  0.00  0.00    -0.056 A 
ATOM      4  C   UNL     1       0.726   0.287   0.905  0.00  0.00    -0.018 A 
ATOM      5  C   UNL     1       1.352  -0.889   0.452  0.00  0.00    +0.042 A 
ATOM      6  C   UNL     1       2.747  -0.939   0.285  0.00  0.00    -0.042 A 
ATOM      7  H   UNL     1       3.510   2.237   1.222  0.00  0.00    +0.062 HD
ATOM      8  H   UNL     1       1.081   2.337   1.511  0.00  0.00    +0.062 HD
ATOM      9  H   UNL     1       3.209  -1.845  -0.103  0.00  0.00    +0.063 HD
ENDROOT
BRANCH   1  14
ATOM     10  C   UNL     1       7.047   1.005  -0.660  0.00  0.00    +0.121 A 
ATOM     11  C   UNL     1       7.800   0.035  -0.001  0.00  0.00    -0.020 A 
ATOM     12  C   UNL     1       7.171  -0.886   0.839  0.00  0.00    -0.058 A 
ATOM     13  C   UNL     1       5.788  -0.841   1.022  0.00  0.00    -0.054 A 
ATOM     14  C   UNL     1       5.008   0.126   0.371  0.00  0.00    -0.014 A 
ATOM     15  C   UNL     1       5.661   1.044  -0.468  0.00  0.00    -0.012 A 
ATOM     16  H   UNL     1       8.877  -0.031  -0.117  0.00  0.00    +0.065 HD
ATOM     17  H   UNL     1       7.761  -1.639   1.355  0.00  0.00    +0.062 HD
ATOM     18  H   UNL     1       5.322  -1.562   1.690  0.00  0.00    +0.062 HD
ATOM     19  H   UNL     1       5.084   1.802  -0.997  0.00  0.00    +0.066 HD
BRANCH  10  20
ATOM     20  O   UNL     1       7.532   1.962  -1.508  0.00  0.00    -0.495 OA
BRANCH  20  21
ATOM     21  C   UNL     1       8.931   1.947  -1.763  0.00  0.00    +0.079 C 
ATOM     22  H   UNL     1       9.238   1.007  -2.232  0.00  0.00    +0.066 HD
ATOM     23  H   UNL     1       9.501   2.138  -0.847  0.00  0.00    +0.066 HD
ATOM     24  H   UNL     1       9.151   2.756  -2.466  0.00  0.00    +0.066 HD
ENDBRANCH  20  21
ENDBRANCH  10  20
ENDBRANCH   1  14
BRANCH   5  25
ATOM     25  C   UNL     1       0.562  -2.093   0.089  0.00  0.00    +0.242 C 
ATOM     26  N   UNL     1       1.005  -3.279   0.601  0.00  0.00    -0.325 N 
ATOM     27  O   UNL     1      -0.433  -2.025  -0.620  0.00  0.00    -0.270 OA
ATOM     28  H   UNL     1       0.425  -4.094   0.448  0.00  0.00    +0.145 HD
ATOM     29  H   UNL     1       1.711  -3.327   1.323  0.00  0.00    +0.145 HD
ENDBRANCH   5  25
BRANCH   4  30
ATOM     30  C   UNL     1      -0.763   0.389   1.133  0.00  0.00    +0.039 C 
ATOM     31  H   UNL     1      -1.112  -0.457   1.737  0.00  0.00    +0.051 HD
ATOM     32  H   UNL     1      -1.007   1.295   1.701  0.00  0.00    +0.051 HD
BRANCH  30  33
ATOM     33  N   UNL     1      -1.495   0.401  -0.109  0.00  0.00    -0.295 N 
ATOM     34  C   UNL     1      -2.832   0.718  -0.091  0.00  0.00    +0.300 C 
ATOM     35  O   UNL     1      -3.405   1.161   0.894  0.00  0.00    -0.253 OA
ATOM     36  N   UNL     1      -3.403   0.502  -1.316  0.00  0.00    -0.293 N 
ATOM     37  H   UNL     1      -1.268  -0.383  -0.713  0.00  0.00    +0.151 HD
ATOM     38  H   UNL     1      -2.852  -0.032  -1.968  0.00  0.00    +0.151 HD
BRANCH  36  39
ATOM     39  C   UNL     1      -4.818   0.593  -1.595  0.00  0.00    +0.050 C 
ATOM     40  C   UNL     1      -5.504   1.926  -1.240  0.00  0.00    -0.026 C 
ATOM     41  C   UNL     1      -6.989   1.591  -1.029  0.00  0.00    -0.025 C 
ATOM     42  C   UNL     1      -6.921   0.169  -0.563  0.00  0.00    -0.042 A 
ATOM     43  C   UNL     1      -7.915  -0.569   0.058  0.00  0.00    -0.058 A 
ATOM     44  C   UNL     1      -7.648  -1.901   0.381  0.00  0.00    -0.061 A 
ATOM     45  C   UNL     1      -6.405  -2.477   0.072  0.00  0.00    -0.061 A 
ATOM     46  C   UNL     1      -5.413  -1.729  -0.566  0.00  0.00    -0.057 A 
ATOM     47  C   UNL     1      -5.681  -0.403  -0.874  0.00  0.00    -0.024 A 
ATOM     48  H   UNL     1      -4.931   0.414  -2.672  0.00  0.00    +0.055 HD
ATOM     49  H   UNL     1      -5.359   2.682  -2.019  0.00  0.00    +0.029 HD
ATOM     50  H   UNL     1      -5.107   2.358  -0.314  0.00  0.00    +0.029 HD
ATOM     51  H   UNL     1      -7.444   2.252  -0.286  0.00  0.00    +0.031 HD
ATOM     52  H   UNL     1      -7.544   1.651  -1.971  0.00  0.00    +0.031 HD
ATOM     53  H   UNL     1      -8.878  -0.126   0.293  0.00  0.00    +0.062 HD
ATOM     54  H   UNL     1      -8.408  -2.499   0.877  0.00  0.00    +0.062 HD
ATOM     55  H   UNL     1      -6.213  -3.514   0.333  0.00  0.00    +0.062 HD
ATOM     56  H   UNL     1      -4.454  -2.177  -0.806  0.00  0.00    +0.062 HD
ENDBRANCH  36  39
ENDBRANCH  30  33
ENDBRANCH   4  30
TORSDOF 7
