REMARK  Name = 
REMARK  3 active torsions:
REMARK  status: ('A' for Active; 'I' for Inactive)
REMARK    1  A    between atoms: C_1  and  C_2
REMARK    2  A    between atoms: C_3  and  S_9
REMARK    3  A    between atoms: S_9  and  N_12
REMARK                            x       y       z     vdW  Elec       q    Type
REMARK                         _______ _______ _______ _____ _____    ______ ____
ROOT
ATOM      1  C   UNL     1      -1.178   0.526  -0.660  0.00  0.00    -0.021 A 
ATOM      2  C   UNL     1      -0.579  -0.666  -0.201  0.00  0.00    +0.112 A 
ATOM      3  C   UNL     1      -1.160  -1.399   0.849  0.00  0.00    -0.032 A 
ATOM      4  C   UNL     1      -2.333  -0.952   1.454  0.00  0.00    -0.025 A 
ATOM      5  C   UNL     1      -2.928   0.217   1.002  0.00  0.00    +0.124 A 
ATOM      6  C   UNL     1      -2.369   0.949  -0.042  0.00  0.00    -0.022 A 
ATOM      7  F   UNL     1      -4.059   0.647   1.575  0.00  0.00    -0.205 F 
ATOM      8  H   UNL     1      -0.695  -2.314   1.212  0.00  0.00    +0.064 HD
ATOM      9  H   UNL     1      -2.784  -1.507   2.270  0.00  0.00    +0.065 HD
ATOM     10  H   UNL     1      -2.878   1.854  -0.366  0.00  0.00    +0.065 HD
ENDROOT
BRANCH   1  11
ATOM     11  C   UNL     1      -0.639   1.349  -1.796  0.00  0.00    -0.038 C 
ATOM     12  H   UNL     1      -0.845   0.860  -2.752  0.00  0.00    +0.028 HD
ATOM     13  H   UNL     1      -1.107   2.340  -1.824  0.00  0.00    +0.028 HD
ATOM     14  H   UNL     1       0.436   1.520  -1.686  0.00  0.00    +0.028 HD
ENDBRANCH   1  11
BRANCH   2  15
ATOM     15  S   UNL     1       0.904  -1.333  -0.942  0.00  0.00    +0.076 S 
ATOM     16  O   UNL     1       1.145  -2.660  -0.419  0.00  0.00    -0.150 OA
ATOM     17  O   UNL     1       0.822  -1.121  -2.373  0.00  0.00    -0.150 OA
BRANCH  15  18
ATOM     18  N   UNL     1       2.110  -0.324  -0.405  0.00  0.00    -0.169 N 
ATOM     19  C   UNL     1       2.409  -0.095   0.920  0.00  0.00    +0.316 C 
ATOM     20  O   UNL     1       1.809  -0.573   1.867  0.00  0.00    -0.251 OA
ATOM     21  N   UNL     1       3.457   0.743   1.088  0.00  0.00    -0.312 N 
ATOM     22  H   UNL     1       2.556   0.198  -1.146  0.00  0.00    +0.178 HD
ATOM     23  H   UNL     1       3.797   0.826   2.037  0.00  0.00    +0.147 HD
ATOM     24  H   UNL     1       4.109   0.914   0.340  0.00  0.00    +0.147 HD
ENDBRANCH  15  18
ENDBRANCH   2  15
TORSDOF 3
