REMARK  Name = 
REMARK  8 active torsions:
REMARK  status: ('A' for Active; 'I' for Inactive)
REMARK    1  A    between atoms: C_1  and  C_2
REMARK    2  A    between atoms: C_2  and  C_3
REMARK    3  A    between atoms: C_2  and  C_10
REMARK    4  A    between atoms: C_3  and  C_4
REMARK    5  A    between atoms: N_8  and  C_9
REMARK    6  A    between atoms: C_14  and  N_15
REMARK    7  A    between atoms: C_16  and  C_18
REMARK    8  A    between atoms: C_23  and  C_24
REMARK                            x       y       z     vdW  Elec       q    Type
REMARK                         _______ _______ _______ _____ _____    ______ ____
ROOT
ATOM      1  C   UNL     1      -2.103  -1.025   0.203  0.00  0.00    -0.042 A 
ATOM      2  C   UNL     1      -2.238  -2.149  -0.621  0.00  0.00    -0.058 A 
ATOM      3  C   UNL     1      -1.111  -2.758  -1.171  0.00  0.00    -0.060 A 
ATOM      4  C   UNL     1       0.165  -2.252  -0.912  0.00  0.00    -0.040 A 
ATOM      5  C   UNL     1       0.327  -1.128  -0.103  0.00  0.00    +0.034 A 
ATOM      6  C   UNL     1      -0.812  -0.523   0.449  0.00  0.00    -0.037 A 
ATOM      7  H   UNL     1      -3.217  -2.564  -0.846  0.00  0.00    +0.062 HD
ATOM      8  H   UNL     1      -1.221  -3.634  -1.806  0.00  0.00    +0.062 HD
ATOM      9  H   UNL     1       1.012  -2.763  -1.358  0.00  0.00    +0.064 HD
ATOM     10  H   UNL     1      -0.705   0.357   1.080  0.00  0.00    +0.064 HD
ENDROOT
BRANCH   5  11
ATOM     11  N   UNL     1       1.576  -0.550   0.209  0.00  0.00    -0.281 N 
ATOM     12  C   UNL     1       2.818  -0.937  -0.253  0.00  0.00    +0.249 C 
ATOM     13  O   UNL     1       3.056  -1.829  -1.059  0.00  0.00    -0.270 OA
ATOM     14  H   UNL     1       1.536   0.264   0.807  0.00  0.00    +0.155 HD
BRANCH  12  15
ATOM     15  C   UNL     1       3.936  -0.131   0.299  0.00  0.00    +0.046 C 
ATOM     16  C   UNL     1       4.014   0.592   1.441  0.00  0.00    -0.030 C 
ATOM     17  C   UNL     1       5.351   1.180   1.577  0.00  0.00    +0.050 C 
ATOM     18 CL   UNL     1       5.809   2.154   2.881  0.00  0.00    -0.083 Cl
ATOM     19  C   UNL     1       6.091   0.807   0.531  0.00  0.00    +0.013 C 
ATOM     20  C   UNL     1       7.387   0.913  -0.069  0.00  0.00    +0.064 C 
ATOM     21  C   UNL     1       7.304   0.175  -1.202  0.00  0.00    -0.049 C 
ATOM     22  C   UNL     1       5.966  -0.409  -1.343  0.00  0.00    -0.053 C 
ATOM     23  C   UNL     1       5.239  -0.020  -0.292  0.00  0.00    -0.004 C 
ATOM     24  H   UNL     1       3.247   0.719   2.190  0.00  0.00    +0.064 HD
ATOM     25  H   UNL     1       8.098   0.019  -1.920  0.00  0.00    +0.062 HD
ATOM     26  H   UNL     1       5.644  -1.042  -2.157  0.00  0.00    +0.062 HD
BRANCH  20  27
ATOM     27  C   UNL     1       8.522   1.681   0.489  0.00  0.00    +0.418 C 
ATOM     28  F   UNL     1       8.888   1.233   1.717  0.00  0.00    -0.166 F 
ATOM     29  F   UNL     1       8.232   3.001   0.616  0.00  0.00    -0.166 F 
ATOM     30  F   UNL     1       9.627   1.601  -0.298  0.00  0.00    -0.166 F 
ENDBRANCH  20  27
ENDBRANCH  12  15
ENDBRANCH   5  11
BRANCH   1  31
ATOM     31  C   UNL     1      -3.309  -0.319   0.809  0.00  0.00    -0.012 C 
ATOM     32  H   UNL     1      -2.940   0.407   1.546  0.00  0.00    +0.035 HD
BRANCH  31  33
ATOM     33  C   UNL     1      -4.205  -1.299   1.581  0.00  0.00    -0.058 C 
ATOM     34  H   UNL     1      -4.981  -0.765   2.139  0.00  0.00    +0.024 HD
ATOM     35  H   UNL     1      -4.707  -2.008   0.914  0.00  0.00    +0.024 HD
ATOM     36  H   UNL     1      -3.619  -1.877   2.305  0.00  0.00    +0.024 HD
ENDBRANCH  31  33
BRANCH  31  37
ATOM     37  C   UNL     1      -4.085   0.441  -0.286  0.00  0.00    +0.014 C 
ATOM     38  H   UNL     1      -4.555  -0.265  -0.980  0.00  0.00    +0.035 HD
ATOM     39  H   UNL     1      -3.385   1.036  -0.888  0.00  0.00    +0.035 HD
BRANCH  37  40
ATOM     40  C   UNL     1      -5.089   1.382   0.289  0.00  0.00    +0.134 A 
ATOM     41  N   UNL     1      -4.825   2.425   1.051  0.00  0.00    -0.135 NA
ATOM     42  N   UNL     1      -6.014   3.029   1.380  0.00  0.00    -0.138 NA
ATOM     43  C   UNL     1      -6.978   2.348   0.808  0.00  0.00    +0.120 A 
ATOM     44  N   UNL     1      -6.446   1.307   0.112  0.00  0.00    -0.320 N 
ATOM     45  H   UNL     1      -8.034   2.566   0.869  0.00  0.00    +0.105 HD
BRANCH  44  46
ATOM     46  C   UNL     1      -7.181   0.333  -0.647  0.00  0.00    +0.014 C 
ATOM     47  H   UNL     1      -6.875   0.402  -1.693  0.00  0.00    +0.046 HD
ATOM     48  H   UNL     1      -8.253   0.534  -0.563  0.00  0.00    +0.046 HD
ATOM     49  H   UNL     1      -6.963  -0.661  -0.246  0.00  0.00    +0.046 HD
ENDBRANCH  44  46
ENDBRANCH  37  40
ENDBRANCH  31  37
ENDBRANCH   1  31
TORSDOF 8
