REMARK  Name = 
REMARK  6 active torsions:
REMARK  status: ('A' for Active; 'I' for Inactive)
REMARK    1  A    between atoms: C_1  and  C_2
REMARK    2  A    between atoms: C_5  and  C_6
REMARK    3  A    between atoms: C_7  and  S_8
REMARK    4  A    between atoms: S_8  and  N_11
REMARK    5  A    between atoms: C_15  and  C_17
REMARK    6  A    between atoms: C_20  and  C_21
REMARK                            x       y       z     vdW  Elec       q    Type
REMARK                         _______ _______ _______ _____ _____    ______ ____
ROOT
ATOM      1  N   UNL     1      -1.238  -0.693   1.688  0.00  0.00    -0.174 NA
ATOM      2  C   UNL     1      -1.092  -1.960   0.877  0.00  0.00    +0.036 C 
ATOM      3  C   UNL     1       0.138  -2.781   1.291  0.00  0.00    +0.029 C 
ATOM      4  N   UNL     1       1.319  -1.924   1.370  0.00  0.00    -0.295 N 
ATOM      5  C   UNL     1       2.139  -1.848   0.234  0.00  0.00    +0.253 C 
ATOM      6  O   UNL     1       1.841  -2.464  -0.791  0.00  0.00    -0.269 OA
ATOM      7  C   UNL     1       1.198  -0.803   2.317  0.00  0.00    +0.029 C 
ATOM      8  C   UNL     1      -0.248  -0.599   2.810  0.00  0.00    +0.036 C 
ATOM      9  H   UNL     1      -1.009  -1.727  -0.189  0.00  0.00    +0.046 HD
ATOM     10  H   UNL     1      -2.001  -2.555   1.010  0.00  0.00    +0.046 HD
ATOM     11  H   UNL     1       0.294  -3.607   0.590  0.00  0.00    +0.048 HD
ATOM     12  H   UNL     1      -0.010  -3.231   2.279  0.00  0.00    +0.048 HD
ATOM     13  H   UNL     1       1.839  -1.021   3.177  0.00  0.00    +0.048 HD
ATOM     14  H   UNL     1       1.553   0.119   1.847  0.00  0.00    +0.048 HD
ATOM     15  H   UNL     1      -0.342   0.353   3.343  0.00  0.00    +0.046 HD
ATOM     16  H   UNL     1      -0.511  -1.371   3.546  0.00  0.00    +0.046 HD
ENDROOT
BRANCH   5  17
ATOM     17  C   UNL     1       3.337  -1.025   0.285  0.00  0.00    +0.078 A 
ATOM     18  C   UNL     1       3.813  -0.181  -0.724  0.00  0.00    -0.030 A 
ATOM     19  C   UNL     1       5.022   0.363  -0.313  0.00  0.00    +0.052 A 
ATOM     20  C   UNL     1       5.962   1.243  -0.825  0.00  0.00    +0.089 A 
ATOM     21  N   UNL     1       6.971   1.379   0.066  0.00  0.00    -0.082 NA
ATOM     22  O   UNL     1       6.636   0.550   1.161  0.00  0.00    -0.347 OA
ATOM     23  C   UNL     1       5.457  -0.039   0.884  0.00  0.00    +0.206 A 
ATOM     24  S   UNL     1       4.450  -1.126   1.635  0.00  0.00    -0.044 S 
ATOM     25  H   UNL     1       3.290  -0.006  -1.656  0.00  0.00    +0.064 HD
BRANCH  20  26
ATOM     26  C   UNL     1       5.994   1.971  -2.111  0.00  0.00    -0.018 C 
ATOM     27  H   UNL     1       6.732   1.522  -2.783  0.00  0.00    +0.029 HD
ATOM     28  H   UNL     1       6.261   3.022  -1.957  0.00  0.00    +0.029 HD
ATOM     29  H   UNL     1       5.020   1.944  -2.610  0.00  0.00    +0.029 HD
ENDBRANCH  20  26
ENDBRANCH   5  17
BRANCH   1  30
ATOM     30  S   UNL     1      -1.366   0.750   0.773  0.00  0.00    +0.061 S 
ATOM     31  O   UNL     1      -0.217   0.794  -0.110  0.00  0.00    -0.153 OA
ATOM     32  O   UNL     1      -1.624   1.843   1.687  0.00  0.00    -0.153 OA
BRANCH  30  37
ATOM     33  C   UNL     1      -3.789   0.115  -2.413  0.00  0.00    -0.049 A 
ATOM     34  C   UNL     1      -5.060   0.070  -1.836  0.00  0.00    -0.058 A 
ATOM     35  C   UNL     1      -5.220   0.220  -0.455  0.00  0.00    -0.057 A 
ATOM     36  C   UNL     1      -4.115   0.420   0.388  0.00  0.00    -0.024 A 
ATOM     37  C   UNL     1      -2.837   0.478  -0.201  0.00  0.00    +0.109 A 
ATOM     38  C   UNL     1      -2.680   0.337  -1.591  0.00  0.00    -0.032 A 
ATOM     39  H   UNL     1      -5.940  -0.077  -2.459  0.00  0.00    +0.062 HD
ATOM     40  H   UNL     1      -6.226   0.186  -0.041  0.00  0.00    +0.062 HD
ATOM     41  H   UNL     1      -1.688   0.397  -2.039  0.00  0.00    +0.064 HD
BRANCH  33  42
ATOM     42  C   UNL     1      -3.627  -0.010  -3.900  0.00  0.00    -0.040 C 
ATOM     43  H   UNL     1      -4.325  -0.750  -4.304  0.00  0.00    +0.028 HD
ATOM     44  H   UNL     1      -3.813   0.957  -4.380  0.00  0.00    +0.028 HD
ATOM     45  H   UNL     1      -2.616  -0.343  -4.160  0.00  0.00    +0.028 HD
ENDBRANCH  33  42
BRANCH  36  46
ATOM     46  C   UNL     1      -4.361   0.605   1.861  0.00  0.00    -0.038 C 
ATOM     47  H   UNL     1      -4.221   1.652   2.143  0.00  0.00    +0.028 HD
ATOM     48  H   UNL     1      -5.387   0.327   2.128  0.00  0.00    +0.028 HD
ATOM     49  H   UNL     1      -3.704  -0.034   2.457  0.00  0.00    +0.028 HD
ENDBRANCH  36  46
ENDBRANCH  30  37
ENDBRANCH   1  30
TORSDOF 6
