REMARK  Name = 
REMARK  6 active torsions:
REMARK  status: ('A' for Active; 'I' for Inactive)
REMARK    1  A    between atoms: C_1  and  C_2
REMARK    2  A    between atoms: C_2  and  C_3
REMARK    3  A    between atoms: C_2  and  S_22
REMARK    4  A    between atoms: C_5  and  N_9
REMARK    5  A    between atoms: C_10  and  C_12
REMARK    6  A    between atoms: S_22  and  C_23
REMARK                            x       y       z     vdW  Elec       q    Type
REMARK                         _______ _______ _______ _____ _____    ______ ____
ROOT
ATOM      1  C   UNL     1      -2.547  -0.084   1.839  0.00  0.00    -0.033 A 
ATOM      2  C   UNL     1      -1.197  -0.088   1.444  0.00  0.00    -0.036 A 
ATOM      3  C   UNL     1      -0.612  -1.220   0.860  0.00  0.00    +0.034 A 
ATOM      4  C   UNL     1      -1.368  -2.379   0.723  0.00  0.00    -0.040 A 
ATOM      5  C   UNL     1      -2.693  -2.410   1.159  0.00  0.00    -0.060 A 
ATOM      6  C   UNL     1      -3.281  -1.270   1.708  0.00  0.00    -0.057 A 
ATOM      7  H   UNL     1      -0.613   0.826   1.525  0.00  0.00    +0.064 HD
ATOM      8  H   UNL     1      -0.949  -3.278   0.280  0.00  0.00    +0.064 HD
ATOM      9  H   UNL     1      -3.278  -3.324   1.038  0.00  0.00    +0.062 HD
ATOM     10  H   UNL     1      -4.326  -1.319   2.000  0.00  0.00    +0.062 HD
ENDROOT
BRANCH   3  11
ATOM     11  N   UNL     1       0.712  -1.093   0.409  0.00  0.00    -0.280 N 
ATOM     12  C   UNL     1       1.370  -1.885  -0.508  0.00  0.00    +0.267 C 
ATOM     13  O   UNL     1       0.951  -2.905  -1.047  0.00  0.00    -0.268 OA
ATOM     14  H   UNL     1       1.210  -0.238   0.632  0.00  0.00    +0.155 HD
BRANCH  12  15
ATOM     15  C   UNL     1       2.700  -1.309  -0.903  0.00  0.00    +0.126 A 
ATOM     16  C   UNL     1       3.362  -1.800  -2.025  0.00  0.00    -0.023 A 
ATOM     17  C   UNL     1       4.540  -1.163  -2.436  0.00  0.00    -0.014 A 
ATOM     18  C   UNL     1       5.252  -1.584  -3.575  0.00  0.00    -0.054 A 
ATOM     19  C   UNL     1       6.411  -0.914  -3.974  0.00  0.00    -0.061 A 
ATOM     20  C   UNL     1       6.876   0.179  -3.245  0.00  0.00    -0.061 A 
ATOM     21  C   UNL     1       6.192   0.597  -2.106  0.00  0.00    -0.053 A 
ATOM     22  C   UNL     1       5.019  -0.060  -1.696  0.00  0.00    +0.000 A 
ATOM     23  C   UNL     1       4.284   0.333  -0.574  0.00  0.00    +0.036 A 
ATOM     24  N   UNL     1       3.133  -0.249  -0.165  0.00  0.00    -0.250 NA
ATOM     25  H   UNL     1       2.945  -2.631  -2.579  0.00  0.00    +0.065 HD
ATOM     26  H   UNL     1       4.910  -2.437  -4.157  0.00  0.00    +0.062 HD
ATOM     27  H   UNL     1       6.951  -1.248  -4.857  0.00  0.00    +0.062 HD
ATOM     28  H   UNL     1       7.777   0.701  -3.559  0.00  0.00    +0.062 HD
ATOM     29  H   UNL     1       6.579   1.443  -1.539  0.00  0.00    +0.062 HD
ATOM     30  H   UNL     1       4.606   1.171   0.037  0.00  0.00    +0.084 HD
ENDBRANCH  12  15
ENDBRANCH   3  11
BRANCH   1  31
ATOM     31  C   UNL     1      -3.239   1.184   2.300  0.00  0.00    +0.035 C 
ATOM     32  H   UNL     1      -4.247   0.928   2.652  0.00  0.00    +0.046 HD
BRANCH  31  33
ATOM     33  C   UNL     1      -2.520   1.877   3.456  0.00  0.00    -0.049 C 
ATOM     34  H   UNL     1      -2.417   1.199   4.308  0.00  0.00    +0.024 HD
ATOM     35  H   UNL     1      -1.516   2.214   3.186  0.00  0.00    +0.024 HD
ATOM     36  H   UNL     1      -3.084   2.750   3.806  0.00  0.00    +0.024 HD
ENDBRANCH  31  33
BRANCH  31  37
ATOM     37  S   UNL     1      -3.373   2.358   0.886  0.00  0.00    -0.077 S 
BRANCH  37  38
ATOM     38  C   UNL     1      -5.077   2.655   0.855  0.00  0.00    +0.204 A 
ATOM     39  N   UNL     1      -5.668   3.727   1.348  0.00  0.00    -0.208 NA
ATOM     40  C   UNL     1      -6.978   3.526   1.008  0.00  0.00    +0.141 A 
ATOM     41  N   UNL     1      -7.239   2.399   0.353  0.00  0.00    -0.142 NA
ATOM     42  N   UNL     1      -6.009   1.859   0.252  0.00  0.00    -0.145 N 
ATOM     43 CL   UNL     1      -5.779   0.271  -0.375  0.00  0.00    +0.040 Cl
ATOM     44  H   UNL     1      -7.767   4.223   1.257  0.00  0.00    +0.107 HD
ENDBRANCH  37  38
ENDBRANCH  31  37
ENDBRANCH   1  31
TORSDOF 6
