REMARK  Name = 
REMARK  7 active torsions:
REMARK  status: ('A' for Active; 'I' for Inactive)
REMARK    1  A    between atoms: C_1  and  O_2
REMARK    2  A    between atoms: O_2  and  C_3
REMARK    3  A    between atoms: C_7  and  C_8
REMARK    4  A    between atoms: C_11  and  C_12
REMARK    5  A    between atoms: C_12  and  N_13
REMARK    6  A    between atoms: N_16  and  C_17
REMARK    7  A    between atoms: C_26  and  C_27
REMARK                            x       y       z     vdW  Elec       q    Type
REMARK                         _______ _______ _______ _____ _____    ______ ____
ROOT
ATOM      1  C   UNL     1       3.348   0.030   0.207  0.00  0.00    -0.017 A 
ATOM      2  C   UNL     1       2.776   1.086   0.923  0.00  0.00    -0.054 A 
ATOM      3  C   UNL     1       1.587   1.682   0.496  0.00  0.00    -0.056 A 
ATOM      4  C   UNL     1       0.919   1.237  -0.660  0.00  0.00    -0.018 A 
ATOM      5  C   UNL     1       1.472   0.155  -1.373  0.00  0.00    +0.042 A 
ATOM      6  C   UNL     1       2.683  -0.424  -0.943  0.00  0.00    -0.042 A 
ATOM      7  H   UNL     1       3.251   1.454   1.831  0.00  0.00    +0.062 HD
ATOM      8  H   UNL     1       1.172   2.499   1.086  0.00  0.00    +0.062 HD
ATOM      9  H   UNL     1       3.141  -1.220  -1.526  0.00  0.00    +0.063 HD
ENDROOT
BRANCH   1  14
ATOM     10  C   UNL     1       6.982  -0.388   1.195  0.00  0.00    +0.121 A 
ATOM     11  C   UNL     1       7.023  -1.754   1.476  0.00  0.00    -0.020 A 
ATOM     12  C   UNL     1       5.878  -2.539   1.348  0.00  0.00    -0.058 A 
ATOM     13  C   UNL     1       4.681  -1.957   0.933  0.00  0.00    -0.054 A 
ATOM     14  C   UNL     1       4.611  -0.585   0.644  0.00  0.00    -0.014 A 
ATOM     15  C   UNL     1       5.779   0.190   0.781  0.00  0.00    -0.012 A 
ATOM     16  H   UNL     1       7.956  -2.210   1.801  0.00  0.00    +0.065 HD
ATOM     17  H   UNL     1       5.920  -3.601   1.575  0.00  0.00    +0.062 HD
ATOM     18  H   UNL     1       3.793  -2.580   0.853  0.00  0.00    +0.062 HD
ATOM     19  H   UNL     1       5.723   1.249   0.548  0.00  0.00    +0.066 HD
BRANCH  10  20
ATOM     20  O   UNL     1       8.173   0.264   1.362  0.00  0.00    -0.495 OA
BRANCH  20  21
ATOM     21  C   UNL     1       8.188   1.659   1.090  0.00  0.00    +0.079 C 
ATOM     22  H   UNL     1       7.513   2.200   1.762  0.00  0.00    +0.066 HD
ATOM     23  H   UNL     1       9.203   2.025   1.274  0.00  0.00    +0.066 HD
ATOM     24  H   UNL     1       7.947   1.859   0.041  0.00  0.00    +0.066 HD
ENDBRANCH  20  21
ENDBRANCH  10  20
ENDBRANCH   1  14
BRANCH   5  25
ATOM     25  C   UNL     1       0.811  -0.402  -2.592  0.00  0.00    +0.242 C 
ATOM     26  N   UNL     1       0.971  -1.741  -2.826  0.00  0.00    -0.325 N 
ATOM     27  O   UNL     1       0.110   0.270  -3.337  0.00  0.00    -0.270 OA
ATOM     28  H   UNL     1       1.290  -2.374  -2.106  0.00  0.00    +0.145 HD
ATOM     29  H   UNL     1       0.422  -2.134  -3.580  0.00  0.00    +0.145 HD
ENDBRANCH   5  25
BRANCH   4  30
ATOM     30  C   UNL     1      -0.340   1.968  -1.073  0.00  0.00    +0.039 C 
ATOM     31  H   UNL     1      -0.174   2.472  -2.031  0.00  0.00    +0.051 HD
ATOM     32  H   UNL     1      -0.589   2.750  -0.345  0.00  0.00    +0.051 HD
BRANCH  30  33
ATOM     33  N   UNL     1      -1.491   1.110  -1.208  0.00  0.00    -0.295 N 
ATOM     34  C   UNL     1      -2.188   0.660  -0.123  0.00  0.00    +0.300 C 
ATOM     35  O   UNL     1      -1.960   0.995   1.031  0.00  0.00    -0.253 OA
ATOM     36  N   UNL     1      -3.172  -0.218  -0.499  0.00  0.00    -0.293 N 
ATOM     37  H   UNL     1      -1.516   0.554  -2.054  0.00  0.00    +0.151 HD
ATOM     38  H   UNL     1      -3.548  -0.029  -1.416  0.00  0.00    +0.151 HD
BRANCH  36  39
ATOM     39  C   UNL     1      -4.123  -0.707   0.479  0.00  0.00    +0.050 C 
ATOM     40  C   UNL     1      -4.695  -2.081   0.077  0.00  0.00    -0.026 C 
ATOM     41  C   UNL     1      -5.943  -1.815  -0.779  0.00  0.00    -0.025 C 
ATOM     42  C   UNL     1      -6.403  -0.503  -0.228  0.00  0.00    -0.042 A 
ATOM     43  C   UNL     1      -7.637   0.105  -0.388  0.00  0.00    -0.058 A 
ATOM     44  C   UNL     1      -7.835   1.362   0.188  0.00  0.00    -0.061 A 
ATOM     45  C   UNL     1      -6.804   1.995   0.900  0.00  0.00    -0.061 A 
ATOM     46  C   UNL     1      -5.560   1.380   1.046  0.00  0.00    -0.057 A 
ATOM     47  C   UNL     1      -5.373   0.128   0.481  0.00  0.00    -0.024 A 
ATOM     48  H   UNL     1      -3.668  -0.759   1.474  0.00  0.00    +0.055 HD
ATOM     49  H   UNL     1      -5.006  -2.614   0.986  0.00  0.00    +0.029 HD
ATOM     50  H   UNL     1      -3.970  -2.720  -0.439  0.00  0.00    +0.029 HD
ATOM     51  H   UNL     1      -6.687  -2.606  -0.655  0.00  0.00    +0.031 HD
ATOM     52  H   UNL     1      -5.682  -1.708  -1.837  0.00  0.00    +0.031 HD
ATOM     53  H   UNL     1      -8.432  -0.377  -0.947  0.00  0.00    +0.062 HD
ATOM     54  H   UNL     1      -8.796   1.859   0.080  0.00  0.00    +0.062 HD
ATOM     55  H   UNL     1      -6.974   2.977   1.336  0.00  0.00    +0.062 HD
ATOM     56  H   UNL     1      -4.754   1.872   1.585  0.00  0.00    +0.062 HD
ENDBRANCH  36  39
ENDBRANCH  30  33
ENDBRANCH   4  30
TORSDOF 7
