REMARK  Name = 
REMARK  4 active torsions:
REMARK  status: ('A' for Active; 'I' for Inactive)
REMARK    1  A    between atoms: N_10  and  C_11
REMARK    2  A    between atoms: C_14  and  C_15
REMARK    3  A    between atoms: C_18  and  C_19
REMARK    4  A    between atoms: C_19  and  C_20
REMARK                            x       y       z     vdW  Elec       q    Type
REMARK                         _______ _______ _______ _____ _____    ______ ____
ROOT
ATOM      1  C   UNL     1      -1.971  -0.094  -0.577  0.00  0.00    +0.037 A 
ATOM      2  C   UNL     1      -0.982   0.860  -0.864  0.00  0.00    -0.040 A 
ATOM      3  C   UNL     1       0.377   0.607  -0.621  0.00  0.00    -0.057 A 
ATOM      4  C   UNL     1       0.795  -0.604  -0.064  0.00  0.00    -0.044 A 
ATOM      5  C   UNL     1      -0.184  -1.550   0.251  0.00  0.00    -0.057 A 
ATOM      6  C   UNL     1      -1.540  -1.295   0.005  0.00  0.00    -0.040 A 
ATOM      7  H   UNL     1      -1.223   1.836  -1.270  0.00  0.00    +0.064 HD
ATOM      8  H   UNL     1       1.101   1.381  -0.865  0.00  0.00    +0.062 HD
ATOM      9  H   UNL     1       0.089  -2.502   0.701  0.00  0.00    +0.062 HD
ATOM     10  H   UNL     1      -2.244  -2.072   0.298  0.00  0.00    +0.064 HD
ENDROOT
BRANCH   1  20
ATOM     11  N   UNL     1      -5.157  -1.921   2.079  0.00  0.00    -0.281 NA
ATOM     12  C   UNL     1      -5.900  -1.059   1.479  0.00  0.00    +0.164 A 
ATOM     13  N   UNL     1      -7.089  -0.808   2.122  0.00  0.00    -0.218 NA
ATOM     14  C   UNL     1      -7.785   0.185   1.686  0.00  0.00    +0.098 A 
ATOM     15  N   UNL     1      -7.439   0.972   0.639  0.00  0.00    -0.316 N 
ATOM     16  C   UNL     1      -6.341   0.685  -0.131  0.00  0.00    +0.210 A 
ATOM     17  C   UNL     1      -5.533  -0.340   0.216  0.00  0.00    +0.140 A 
ATOM     18  C   UNL     1      -4.340  -0.801  -0.538  0.00  0.00    +0.260 C 
ATOM     19  O   UNL     1      -4.247  -1.978  -0.881  0.00  0.00    -0.269 OA
ATOM     20  N   UNL     1      -3.371   0.169  -0.803  0.00  0.00    -0.264 N 
ATOM     21  C   UNL     1      -3.785   1.434  -1.412  0.00  0.00    +0.054 C 
ATOM     22  C   UNL     1      -5.144   1.350  -2.110  0.00  0.00    +0.107 C 
ATOM     23  O   UNL     1      -6.226   1.527  -1.203  0.00  0.00    -0.475 OA
ATOM     24  H   UNL     1      -5.703  -2.211   2.900  0.00  0.00    +0.188 HD
ATOM     25  H   UNL     1      -8.744   0.460   2.156  0.00  0.00    +0.103 HD
ATOM     26  H   UNL     1      -8.057   1.690   0.283  0.00  0.00    +0.170 HD
ATOM     27  H   UNL     1      -3.777   2.206  -0.635  0.00  0.00    +0.050 HD
ATOM     28  H   UNL     1      -3.067   1.692  -2.196  0.00  0.00    +0.050 HD
ATOM     29  H   UNL     1      -5.277   0.427  -2.687  0.00  0.00    +0.071 HD
ATOM     30  H   UNL     1      -5.217   2.179  -2.823  0.00  0.00    +0.071 HD
ENDBRANCH   1  20
BRANCH   4  31
ATOM     31  C   UNL     1       2.259  -0.904   0.211  0.00  0.00    -0.016 C 
ATOM     32  C   UNL     1       3.119  -0.908  -1.071  0.00  0.00    -0.046 C 
ATOM     33  C   UNL     1       4.037   0.308  -1.174  0.00  0.00    -0.049 C 
ATOM     34  C   UNL     1       4.991   0.439   0.030  0.00  0.00    -0.033 C 
ATOM     35  C   UNL     1       4.349  -0.060   1.342  0.00  0.00    -0.049 C 
ATOM     36  C   UNL     1       2.826   0.020   1.305  0.00  0.00    -0.046 C 
ATOM     37  H   UNL     1       2.311  -1.930   0.606  0.00  0.00    +0.035 HD
ATOM     38  H   UNL     1       2.498  -0.983  -1.972  0.00  0.00    +0.027 HD
ATOM     39  H   UNL     1       3.748  -1.808  -1.067  0.00  0.00    +0.027 HD
ATOM     40  H   UNL     1       3.422   1.214  -1.236  0.00  0.00    +0.027 HD
ATOM     41  H   UNL     1       4.600   0.268  -2.114  0.00  0.00    +0.027 HD
ATOM     42  H   UNL     1       5.206   1.511   0.145  0.00  0.00    +0.031 HD
ATOM     43  H   UNL     1       4.641  -1.099   1.545  0.00  0.00    +0.027 HD
ATOM     44  H   UNL     1       4.723   0.535   2.183  0.00  0.00    +0.027 HD
ATOM     45  H   UNL     1       2.529   1.064   1.147  0.00  0.00    +0.027 HD
ATOM     46  H   UNL     1       2.415  -0.270   2.279  0.00  0.00    +0.027 HD
BRANCH  34  47
ATOM     47  C   UNL     1       6.323  -0.285  -0.241  0.00  0.00    +0.027 C 
ATOM     48  H   UNL     1       6.706   0.003  -1.228  0.00  0.00    +0.036 HD
ATOM     49  H   UNL     1       6.172  -1.371  -0.248  0.00  0.00    +0.036 HD
BRANCH  47  50
ATOM     50  C   UNL     1       7.411   0.057   0.759  0.00  0.00    +0.211 C 
ATOM     51  N   UNL     1       8.528  -0.720   0.653  0.00  0.00    -0.329 N 
ATOM     52  O   UNL     1       7.351   0.961   1.582  0.00  0.00    -0.276 OA
ATOM     53  H   UNL     1       9.262  -0.565   1.332  0.00  0.00    +0.145 HD
ATOM     54  H   UNL     1       8.557  -1.561   0.095  0.00  0.00    +0.145 HD
ENDBRANCH  47  50
ENDBRANCH  34  47
ENDBRANCH   4  31
TORSDOF 4
