REMARK  Name = 
REMARK  6 active torsions:
REMARK  status: ('A' for Active; 'I' for Inactive)
REMARK    1  A    between atoms: C_2  and  C_4
REMARK    2  A    between atoms: C_4  and  N_5
REMARK    3  A    between atoms: N_5  and  C_19
REMARK    4  A    between atoms: C_6  and  C_8
REMARK    5  A    between atoms: C_8  and  C_9
REMARK    6  A    between atoms: C_12  and  C_13
REMARK                            x       y       z     vdW  Elec       q    Type
REMARK                         _______ _______ _______ _____ _____    ______ ____
ROOT
ATOM      1  N   UNL     1      -1.379  -0.073   0.366  0.00  0.00    -0.289 N 
ATOM      2  C   UNL     1      -0.018  -0.321   0.597  0.00  0.00    +0.221 C 
ATOM      3  O   UNL     1       0.460  -1.444   0.422  0.00  0.00    -0.275 OA
ENDROOT
BRANCH   1   4
ATOM      4  C   UNL     1      -2.215  -1.223  -0.021  0.00  0.00    +0.027 C 
ATOM      5  C   UNL     1      -2.709  -2.005   1.208  0.00  0.00    -0.034 C 
ATOM      6  C   UNL     1      -4.076  -2.534   0.804  0.00  0.00    -0.051 C 
ATOM      7  C   UNL     1      -4.654  -1.396  -0.018  0.00  0.00    -0.051 C 
ATOM      8  C   UNL     1      -3.474  -0.912  -0.854  0.00  0.00    -0.034 C 
ATOM      9  H   UNL     1      -1.594  -1.897  -0.628  0.00  0.00    +0.050 HD
ATOM     10  H   UNL     1      -2.812  -1.348   2.081  0.00  0.00    +0.028 HD
ATOM     11  H   UNL     1      -2.023  -2.811   1.485  0.00  0.00    +0.028 HD
ATOM     12  H   UNL     1      -3.967  -3.434   0.186  0.00  0.00    +0.027 HD
ATOM     13  H   UNL     1      -4.698  -2.783   1.668  0.00  0.00    +0.027 HD
ATOM     14  H   UNL     1      -5.003  -0.593   0.642  0.00  0.00    +0.027 HD
ATOM     15  H   UNL     1      -5.497  -1.716  -0.637  0.00  0.00    +0.027 HD
ATOM     16  H   UNL     1      -3.591   0.133  -1.147  0.00  0.00    +0.028 HD
ATOM     17  H   UNL     1      -3.436  -1.494  -1.783  0.00  0.00    +0.028 HD
ENDBRANCH   1   4
BRANCH   1  18
ATOM     18  C   UNL     1      -2.042   1.171   0.802  0.00  0.00    +0.091 C 
ATOM     19  H   UNL     1      -3.072   0.953   1.096  0.00  0.00    +0.056 HD
ATOM     20  H   UNL     1      -1.530   1.573   1.681  0.00  0.00    +0.056 HD
BRANCH  18  22
ATOM     21  N   UNL     1      -1.387   1.994  -1.430  0.00  0.00    -0.328 N 
ATOM     22  C   UNL     1      -2.066   2.264  -0.275  0.00  0.00    +0.228 C 
ATOM     23  O   UNL     1      -2.627   3.343  -0.114  0.00  0.00    -0.274 OA
ATOM     24  H   UNL     1      -1.142   1.037  -1.655  0.00  0.00    +0.145 HD
ATOM     25  H   UNL     1      -1.483   2.658  -2.188  0.00  0.00    +0.145 HD
ENDBRANCH  18  22
ENDBRANCH   1  18
BRANCH   2  26
ATOM     26  C   UNL     1       0.847   0.840   1.092  0.00  0.00    +0.049 C 
ATOM     27  H   UNL     1       0.764   0.881   2.184  0.00  0.00    +0.041 HD
ATOM     28  H   UNL     1       0.477   1.795   0.709  0.00  0.00    +0.041 HD
BRANCH  26  29
ATOM     29  C   UNL     1       2.304   0.726   0.701  0.00  0.00    -0.039 A 
ATOM     30  C   UNL     1       2.789   1.390  -0.434  0.00  0.00    -0.058 A 
ATOM     31  C   UNL     1       4.133   1.278  -0.799  0.00  0.00    -0.050 A 
ATOM     32  C   UNL     1       5.018   0.501  -0.037  0.00  0.00    +0.055 A 
ATOM     33  C   UNL     1       4.526  -0.175   1.088  0.00  0.00    -0.050 A 
ATOM     34  C   UNL     1       3.183  -0.062   1.455  0.00  0.00    -0.058 A 
ATOM     35  H   UNL     1       2.124   1.999  -1.043  0.00  0.00    +0.062 HD
ATOM     36  H   UNL     1       4.489   1.801  -1.686  0.00  0.00    +0.062 HD
ATOM     37  H   UNL     1       5.189  -0.802   1.685  0.00  0.00    +0.062 HD
ATOM     38  H   UNL     1       2.822  -0.609   2.324  0.00  0.00    +0.062 HD
BRANCH  32  39
ATOM     39  C   UNL     1       6.462   0.361  -0.449  0.00  0.00    +0.417 C 
ATOM     40  F   UNL     1       6.956   1.480  -1.051  0.00  0.00    -0.166 F 
ATOM     41  F   UNL     1       6.655  -0.654  -1.335  0.00  0.00    -0.166 F 
ATOM     42  F   UNL     1       7.297   0.107   0.598  0.00  0.00    -0.166 F 
ENDBRANCH  32  39
ENDBRANCH  26  29
ENDBRANCH   2  26
TORSDOF 6
