REMARK  Name = 
REMARK  8 active torsions:
REMARK  status: ('A' for Active; 'I' for Inactive)
REMARK    1  A    between atoms: C_1  and  N_2
REMARK    2  A    between atoms: C_6  and  C_7
REMARK    3  A    between atoms: C_7  and  C_8
REMARK    4  A    between atoms: C_8  and  C_12
REMARK    5  A    between atoms: C_16  and  N_18
REMARK    6  A    between atoms: C_23  and  C_24
REMARK    7  A    between atoms: C_24  and  N_25
REMARK    8  A    between atoms: C_32  and  C_33
REMARK                            x       y       z     vdW  Elec       q    Type
REMARK                         _______ _______ _______ _____ _____    ______ ____
ROOT
ATOM      1  N   UNL     1       0.241   0.411   0.800  0.00  0.00    -0.263 N 
ATOM      2  C   UNL     1      -0.043  -0.975   0.457  0.00  0.00    +0.046 C 
ATOM      3  C   UNL     1      -1.535  -1.043   0.459  0.00  0.00    -0.006 A 
ATOM      4  C   UNL     1      -2.056   0.202   0.787  0.00  0.00    +0.043 A 
ATOM      5  C   UNL     1      -3.414   0.439   0.883  0.00  0.00    -0.045 A 
ATOM      6  C   UNL     1      -4.292  -0.628   0.632  0.00  0.00    -0.032 A 
ATOM      7  C   UNL     1      -3.764  -1.897   0.296  0.00  0.00    -0.045 A 
ATOM      8  C   UNL     1      -2.376  -2.122   0.203  0.00  0.00    +0.061 A 
ATOM      9  C   UNL     1      -0.941   1.133   1.008  0.00  0.00    +0.251 C 
ATOM     10  O   UNL     1      -1.127   2.293   1.325  0.00  0.00    -0.270 OA
ATOM     11  H   UNL     1       0.372  -1.637   1.224  0.00  0.00    +0.052 HD
ATOM     12  H   UNL     1       0.357  -1.201  -0.538  0.00  0.00    +0.052 HD
ATOM     13  H   UNL     1      -3.785   1.427   1.144  0.00  0.00    +0.063 HD
ATOM     14  H   UNL     1      -4.451  -2.723   0.105  0.00  0.00    +0.063 HD
ENDROOT
BRANCH   1  19
ATOM     15  C   UNL     1       4.022   0.474   0.886  0.00  0.00    -0.035 A 
ATOM     16  C   UNL     1       4.214   1.834   1.177  0.00  0.00    -0.058 A 
ATOM     17  C   UNL     1       3.141   2.708   1.338  0.00  0.00    -0.060 A 
ATOM     18  C   UNL     1       1.831   2.245   1.218  0.00  0.00    -0.040 A 
ATOM     19  C   UNL     1       1.570   0.906   0.923  0.00  0.00    +0.037 A 
ATOM     20  C   UNL     1       2.676   0.049   0.753  0.00  0.00    -0.036 A 
ATOM     21  H   UNL     1       5.226   2.232   1.259  0.00  0.00    +0.062 HD
ATOM     22  H   UNL     1       3.325   3.759   1.550  0.00  0.00    +0.062 HD
ATOM     23  H   UNL     1       1.033   2.968   1.351  0.00  0.00    +0.064 HD
ATOM     24  H   UNL     1       2.517  -0.999   0.513  0.00  0.00    +0.064 HD
BRANCH  15  25
ATOM     25  C   UNL     1       5.255  -0.541   0.720  0.00  0.00    +0.049 C 
ATOM     26  C   UNL     1       6.399  -0.473   1.776  0.00  0.00    +0.060 C 
ATOM     27  O   UNL     1       6.438  -1.926   1.852  0.00  0.00    -0.378 OA
ATOM     28  C   UNL     1       5.078  -1.962   1.334  0.00  0.00    +0.060 C 
ATOM     29  H   UNL     1       6.133  -0.041   2.748  0.00  0.00    +0.057 HD
ATOM     30  H   UNL     1       7.356  -0.059   1.454  0.00  0.00    +0.057 HD
ATOM     31  H   UNL     1       4.930  -2.785   0.629  0.00  0.00    +0.057 HD
ATOM     32  H   UNL     1       4.355  -2.056   2.153  0.00  0.00    +0.057 HD
BRANCH  25  33
ATOM     33  C   UNL     1       5.726  -0.634  -0.747  0.00  0.00    +0.021 C 
ATOM     34  H   UNL     1       6.241  -1.587  -0.919  0.00  0.00    +0.035 HD
ATOM     35  H   UNL     1       4.857  -0.655  -1.418  0.00  0.00    +0.035 HD
BRANCH  33  40
ATOM     36  N   UNL     1       7.961   0.368  -1.431  0.00  0.00    -0.320 N 
ATOM     37  C   UNL     1       8.399   1.622  -1.730  0.00  0.00    +0.120 A 
ATOM     38  N   UNL     1       7.396   2.463  -1.661  0.00  0.00    -0.138 NA
ATOM     39  N   UNL     1       6.277   1.748  -1.311  0.00  0.00    -0.135 NA
ATOM     40  C   UNL     1       6.621   0.485  -1.156  0.00  0.00    +0.134 A 
ATOM     41  H   UNL     1       9.422   1.868  -1.984  0.00  0.00    +0.105 HD
BRANCH  36  42
ATOM     42  C   UNL     1       8.766  -0.823  -1.420  0.00  0.00    +0.014 C 
ATOM     43  H   UNL     1       8.467  -1.446  -2.266  0.00  0.00    +0.046 HD
ATOM     44  H   UNL     1       8.610  -1.351  -0.477  0.00  0.00    +0.046 HD
ATOM     45  H   UNL     1       9.822  -0.554  -1.513  0.00  0.00    +0.046 HD
ENDBRANCH  36  42
ENDBRANCH  33  40
ENDBRANCH  25  33
ENDBRANCH  15  25
ENDBRANCH   1  19
BRANCH   8  46
ATOM     46  C   UNL     1      -1.815  -3.472  -0.153  0.00  0.00    +0.418 C 
ATOM     47  F   UNL     1      -0.972  -3.949   0.805  0.00  0.00    -0.166 F 
ATOM     48  F   UNL     1      -2.762  -4.432  -0.333  0.00  0.00    -0.166 F 
ATOM     49  F   UNL     1      -1.086  -3.440  -1.303  0.00  0.00    -0.166 F 
ENDBRANCH   8  46
BRANCH   6  50
ATOM     50  C   UNL     1      -5.791  -0.430   0.758  0.00  0.00    +0.024 C 
ATOM     51  H   UNL     1      -5.980  -0.233   1.822  0.00  0.00    +0.048 HD
ATOM     52  H   UNL     1      -6.325  -1.358   0.516  0.00  0.00    +0.048 HD
BRANCH  50  53
ATOM     53  N   UNL     1      -6.301   0.678  -0.058  0.00  0.00    -0.298 NA
ATOM     54  C   UNL     1      -6.252   0.411  -1.504  0.00  0.00    -0.001 C 
ATOM     55  C   UNL     1      -7.618   0.135  -2.131  0.00  0.00    -0.040 C 
ATOM     56  C   UNL     1      -8.583   1.298  -1.906  0.00  0.00    -0.051 C 
ATOM     57  C   UNL     1      -8.329   2.014  -0.581  0.00  0.00    -0.040 C 
ATOM     58  C   UNL     1      -7.624   1.104   0.422  0.00  0.00    -0.001 C 
ATOM     59  H   UNL     1      -5.821   1.297  -1.987  0.00  0.00    +0.043 HD
ATOM     60  H   UNL     1      -5.574  -0.415  -1.752  0.00  0.00    +0.043 HD
ATOM     61  H   UNL     1      -7.510  -0.048  -3.206  0.00  0.00    +0.028 HD
ATOM     62  H   UNL     1      -8.040  -0.781  -1.698  0.00  0.00    +0.028 HD
ATOM     63  H   UNL     1      -9.611   0.921  -1.942  0.00  0.00    +0.027 HD
ATOM     64  H   UNL     1      -8.493   2.023  -2.724  0.00  0.00    +0.027 HD
ATOM     65  H   UNL     1      -9.278   2.372  -0.165  0.00  0.00    +0.028 HD
ATOM     66  H   UNL     1      -7.715   2.907  -0.759  0.00  0.00    +0.028 HD
ATOM     67  H   UNL     1      -8.267   0.237   0.624  0.00  0.00    +0.043 HD
ATOM     68  H   UNL     1      -7.503   1.645   1.368  0.00  0.00    +0.043 HD
ENDBRANCH  50  53
ENDBRANCH   6  50
TORSDOF 8
