REMARK  Name = 
REMARK  5 active torsions:
REMARK  status: ('A' for Active; 'I' for Inactive)
REMARK    1  A    between atoms: C_2  and  C_20
REMARK    2  A    between atoms: N_3  and  C_4
REMARK    3  A    between atoms: C_8  and  C_9
REMARK    4  A    between atoms: C_24  and  C_25
REMARK    5  A    between atoms: C_25  and  N_26
REMARK                            x       y       z     vdW  Elec       q    Type
REMARK                         _______ _______ _______ _____ _____    ______ ____
ROOT
ATOM      1  O   UNL     1       0.863  -2.490   0.703  0.00  0.00    -0.270 OA
ATOM      2  C   UNL     1       0.677  -1.442   0.096  0.00  0.00    +0.248 C 
ATOM      3  N   UNL     1      -0.524  -0.996  -0.425  0.00  0.00    -0.281 N 
ATOM      4  H   UNL     1      -0.553  -0.040  -0.760  0.00  0.00    +0.155 HD
ENDROOT
BRANCH   3   5
ATOM      5  C   UNL     1      -1.758  -1.677  -0.439  0.00  0.00    +0.034 A 
ATOM      6  C   UNL     1      -1.923  -3.010  -0.056  0.00  0.00    -0.040 A 
ATOM      7  C   UNL     1      -3.183  -3.612  -0.110  0.00  0.00    -0.059 A 
ATOM      8  C   UNL     1      -4.294  -2.880  -0.532  0.00  0.00    -0.051 A 
ATOM      9  C   UNL     1      -4.148  -1.542  -0.903  0.00  0.00    +0.021 A 
ATOM     10  C   UNL     1      -2.876  -0.956  -0.878  0.00  0.00    -0.030 A 
ATOM     11  H   UNL     1      -1.081  -3.618   0.270  0.00  0.00    +0.064 HD
ATOM     12  H   UNL     1      -3.293  -4.657   0.170  0.00  0.00    +0.062 HD
ATOM     13  H   UNL     1      -5.265  -3.364  -0.579  0.00  0.00    +0.062 HD
ATOM     14  H   UNL     1      -2.773   0.079  -1.198  0.00  0.00    +0.064 HD
BRANCH   9  15
ATOM     15  C   UNL     1      -5.290  -0.742  -1.325  0.00  0.00    +0.164 A 
ATOM     16  N   UNL     1      -5.439  -0.189  -2.512  0.00  0.00    -0.129 NA
ATOM     17  N   UNL     1      -6.601   0.541  -2.510  0.00  0.00    -0.134 NA
ATOM     18  C   UNL     1      -7.139   0.444  -1.318  0.00  0.00    +0.134 A 
ATOM     19  N   UNL     1      -6.347  -0.355  -0.535  0.00  0.00    -0.311 N 
ATOM     20  C   UNL     1      -6.558  -0.620   0.868  0.00  0.00    +0.026 C 
ATOM     21  C   UNL     1      -6.543   0.644   1.732  0.00  0.00    -0.035 C 
ATOM     22  C   UNL     1      -7.820   1.480   1.635  0.00  0.00    -0.051 C 
ATOM     23  C   UNL     1      -8.073   2.127   0.272  0.00  0.00    -0.046 C 
ATOM     24  C   UNL     1      -8.370   1.126  -0.844  0.00  0.00    +0.007 C 
ATOM     25  H   UNL     1      -7.511  -1.157   0.963  0.00  0.00    +0.049 HD
ATOM     26  H   UNL     1      -5.769  -1.294   1.221  0.00  0.00    +0.049 HD
ATOM     27  H   UNL     1      -6.429   0.339   2.783  0.00  0.00    +0.028 HD
ATOM     28  H   UNL     1      -5.671   1.269   1.487  0.00  0.00    +0.028 HD
ATOM     29  H   UNL     1      -8.687   0.875   1.928  0.00  0.00    +0.027 HD
ATOM     30  H   UNL     1      -7.752   2.285   2.377  0.00  0.00    +0.027 HD
ATOM     31  H   UNL     1      -7.224   2.767   0.001  0.00  0.00    +0.027 HD
ATOM     32  H   UNL     1      -8.945   2.786   0.378  0.00  0.00    +0.027 HD
ATOM     33  H   UNL     1      -8.805   1.672  -1.693  0.00  0.00    +0.034 HD
ATOM     34  H   UNL     1      -9.117   0.386  -0.526  0.00  0.00    +0.034 HD
ENDBRANCH   9  15
ENDBRANCH   3   5
BRANCH   2  35
ATOM     35  C   UNL     1       1.812  -0.479  -0.043  0.00  0.00    +0.037 A 
ATOM     36  C   UNL     1       1.918   0.390  -1.136  0.00  0.00    -0.050 A 
ATOM     37  C   UNL     1       2.952   1.331  -1.180  0.00  0.00    -0.061 A 
ATOM     38  C   UNL     1       3.889   1.393  -0.149  0.00  0.00    -0.057 A 
ATOM     39  C   UNL     1       3.831   0.494   0.928  0.00  0.00    -0.029 A 
ATOM     40  C   UNL     1       2.782  -0.441   0.970  0.00  0.00    -0.045 A 
ATOM     41  H   UNL     1       1.214   0.345  -1.963  0.00  0.00    +0.063 HD
ATOM     42  H   UNL     1       3.026   2.023  -2.017  0.00  0.00    +0.062 HD
ATOM     43  H   UNL     1       4.663   2.156  -0.194  0.00  0.00    +0.062 HD
ATOM     44  H   UNL     1       2.704  -1.138   1.805  0.00  0.00    +0.063 HD
BRANCH  39  45
ATOM     45  C   UNL     1       4.829   0.557   2.063  0.00  0.00    +0.048 C 
ATOM     46  H   UNL     1       4.641   1.468   2.642  0.00  0.00    +0.052 HD
ATOM     47  H   UNL     1       4.690  -0.300   2.734  0.00  0.00    +0.052 HD
BRANCH  45  48
ATOM     48  N   UNL     1       6.206   0.548   1.614  0.00  0.00    -0.230 N 
ATOM     49  C   UNL     1       6.965   1.672   1.444  0.00  0.00    +0.254 C 
ATOM     50  O   UNL     1       6.660   2.836   1.606  0.00  0.00    -0.270 OA
ATOM     51  C   UNL     1       8.283   1.225   0.996  0.00  0.00    +0.049 A 
ATOM     52  C   UNL     1       9.414   1.952   0.678  0.00  0.00    -0.049 A 
ATOM     53  C   UNL     1      10.544   1.232   0.278  0.00  0.00    -0.061 A 
ATOM     54  C   UNL     1      10.514  -0.176   0.200  0.00  0.00    -0.061 A 
ATOM     55  C   UNL     1       9.353  -0.889   0.526  0.00  0.00    -0.049 A 
ATOM     56  C   UNL     1       8.252  -0.155   0.923  0.00  0.00    +0.049 A 
ATOM     57  C   UNL     1       6.915  -0.589   1.332  0.00  0.00    +0.254 C 
ATOM     58  O   UNL     1       6.572  -1.752   1.406  0.00  0.00    -0.270 OA
ATOM     59  H   UNL     1       9.419   3.036   0.742  0.00  0.00    +0.063 HD
ATOM     60  H   UNL     1      11.459   1.765   0.021  0.00  0.00    +0.062 HD
ATOM     61  H   UNL     1      11.403  -0.714  -0.117  0.00  0.00    +0.062 HD
ATOM     62  H   UNL     1       9.313  -1.971   0.469  0.00  0.00    +0.063 HD
ENDBRANCH  45  48
ENDBRANCH  39  45
ENDBRANCH   2  35
TORSDOF 5
