REMARK  Name = 
REMARK  4 active torsions:
REMARK  status: ('A' for Active; 'I' for Inactive)
REMARK    1  A    between atoms: C_1  and  C_2
REMARK    2  A    between atoms: C_8  and  C_9
REMARK    3  A    between atoms: C_9  and  N_10
REMARK    4  A    between atoms: C_15  and  C_16
REMARK                            x       y       z     vdW  Elec       q    Type
REMARK                         _______ _______ _______ _____ _____    ______ ____
ROOT
ATOM      1  N   UNL     1       1.635   1.211   0.496  0.00  0.00    -0.315 N 
ATOM      2  C   UNL     1       0.301   0.963   0.524  0.00  0.00    +0.182 A 
ATOM      3  N   UNL     1      -0.577   1.885   0.814  0.00  0.00    -0.142 NA
ATOM      4  N   UNL     1      -1.783   1.280   0.761  0.00  0.00    -0.212 N 
ATOM      5  C   UNL     1      -3.044   1.740   0.973  0.00  0.00    +0.054 A 
ATOM      6  C   UNL     1      -3.859   0.630   0.778  0.00  0.00    +0.065 A 
ATOM      7  N   UNL     1      -3.105  -0.486   0.433  0.00  0.00    -0.225 NA
ATOM      8  C   UNL     1      -1.883  -0.032   0.448  0.00  0.00    +0.197 A 
ATOM      9  S   UNL     1      -0.326  -0.676   0.166  0.00  0.00    -0.013 S 
ATOM     10  H   UNL     1       1.897   2.187   0.613  0.00  0.00    +0.148 HD
ATOM     11  H   UNL     1      -3.249   2.767   1.232  0.00  0.00    +0.085 HD
ENDROOT
BRANCH   6  12
ATOM     12  C   UNL     1      -5.346   0.549   0.890  0.00  0.00    +0.003 C 
ATOM     13  C   UNL     1      -5.816  -0.519   1.888  0.00  0.00    -0.045 C 
ATOM     14  C   UNL     1      -7.106  -1.061   1.287  0.00  0.00    -0.052 C 
ATOM     15  C   UNL     1      -6.797  -1.092  -0.200  0.00  0.00    -0.052 C 
ATOM     16  C   UNL     1      -6.038   0.208  -0.443  0.00  0.00    -0.045 C 
ATOM     17  H   UNL     1      -5.723   1.526   1.226  0.00  0.00    +0.036 HD
ATOM     18  H   UNL     1      -5.976  -0.102   2.888  0.00  0.00    +0.027 HD
ATOM     19  H   UNL     1      -5.087  -1.334   1.986  0.00  0.00    +0.027 HD
ATOM     20  H   UNL     1      -7.939  -0.378   1.493  0.00  0.00    +0.027 HD
ATOM     21  H   UNL     1      -7.365  -2.048   1.679  0.00  0.00    +0.027 HD
ATOM     22  H   UNL     1      -6.156  -1.949  -0.436  0.00  0.00    +0.027 HD
ATOM     23  H   UNL     1      -7.703  -1.165  -0.812  0.00  0.00    +0.027 HD
ATOM     24  H   UNL     1      -6.753   1.006  -0.689  0.00  0.00    +0.027 HD
ATOM     25  H   UNL     1      -5.351   0.117  -1.293  0.00  0.00    +0.027 HD
ENDBRANCH   6  12
BRANCH   1  26
ATOM     26  C   UNL     1       2.662   0.381  -0.101  0.00  0.00    +0.073 C 
ATOM     27  H   UNL     1       2.718  -0.568   0.446  0.00  0.00    +0.054 HD
ATOM     28  H   UNL     1       2.384   0.155  -1.139  0.00  0.00    +0.054 HD
BRANCH  26  35
ATOM     29  C   UNL     1       6.405  -1.257  -1.405  0.00  0.00    +0.059 A 
ATOM     30  C   UNL     1       7.612  -0.380  -1.299  0.00  0.00    -0.035 A 
ATOM     31  C   UNL     1       7.446   0.852  -0.803  0.00  0.00    -0.014 A 
ATOM     32  C   UNL     1       6.157   1.264  -0.413  0.00  0.00    +0.178 A 
ATOM     33  N   UNL     1       5.690   2.389   0.084  0.00  0.00    -0.128 NA
ATOM     34  N   UNL     1       4.334   2.233   0.272  0.00  0.00    -0.131 NA
ATOM     35  C   UNL     1       4.008   1.010  -0.108  0.00  0.00    +0.172 A 
ATOM     36  N   UNL     1       5.128   0.357  -0.557  0.00  0.00    -0.195 N 
ATOM     37  N   UNL     1       5.202  -0.915  -1.051  0.00  0.00    -0.169 NA
ATOM     38  H   UNL     1       8.575  -0.754  -1.622  0.00  0.00    +0.064 HD
ATOM     39  H   UNL     1       8.274   1.545  -0.698  0.00  0.00    +0.066 HD
BRANCH  29  40
ATOM     40  C   UNL     1       6.607  -2.641  -1.972  0.00  0.00    -0.021 C 
ATOM     41  H   UNL     1       6.259  -3.383  -1.249  0.00  0.00    +0.029 HD
ATOM     42  H   UNL     1       6.025  -2.740  -2.893  0.00  0.00    +0.029 HD
ATOM     43  H   UNL     1       7.659  -2.835  -2.195  0.00  0.00    +0.029 HD
ENDBRANCH  29  40
ENDBRANCH  26  35
ENDBRANCH   1  26
TORSDOF 4
