REMARK  Name = 
REMARK  8 active torsions:
REMARK  status: ('A' for Active; 'I' for Inactive)
REMARK    1  A    between atoms: C_1  and  C_2
REMARK    2  A    between atoms: C_2  and  N_3
REMARK    3  A    between atoms: C_2  and  C_28
REMARK    4  A    between atoms: N_3  and  C_4
REMARK    5  A    between atoms: C_12  and  N_13
REMARK    6  A    between atoms: N_16  and  C_17
REMARK    7  A    between atoms: C_17  and  C_18
REMARK    8  A    between atoms: C_24  and  C_25
REMARK                            x       y       z     vdW  Elec       q    Type
REMARK                         _______ _______ _______ _____ _____    ______ ____
ROOT
ATOM      1  C   UNL     1       3.112  -0.286   0.336  0.00  0.00    +0.028 A 
ATOM      2  C   UNL     1       2.413   0.324   1.400  0.00  0.00    -0.041 A 
ATOM      3  C   UNL     1       1.045   0.607   1.323  0.00  0.00    -0.055 A 
ATOM      4  C   UNL     1       0.359   0.237   0.182  0.00  0.00    -0.024 A 
ATOM      5  C   UNL     1       1.022  -0.412  -0.861  0.00  0.00    -0.041 A 
ATOM      6  C   UNL     1       2.382  -0.688  -0.791  0.00  0.00    -0.037 A 
ATOM      7  C   UNL     1       0.091  -0.672  -2.007  0.00  0.00    -0.025 C 
ATOM      8  C   UNL     1      -1.279  -0.514  -1.329  0.00  0.00    -0.026 C 
ATOM      9  C   UNL     1      -1.080   0.484  -0.170  0.00  0.00    +0.050 C 
ATOM     10  H   UNL     1       2.947   0.601   2.307  0.00  0.00    +0.064 HD
ATOM     11  H   UNL     1       0.547   1.113   2.142  0.00  0.00    +0.062 HD
ATOM     12  H   UNL     1       2.851  -1.195  -1.624  0.00  0.00    +0.064 HD
ATOM     13  H   UNL     1       0.215  -1.675  -2.430  0.00  0.00    +0.031 HD
ATOM     14  H   UNL     1       0.237   0.083  -2.787  0.00  0.00    +0.031 HD
ATOM     15  H   UNL     1      -1.600  -1.492  -0.942  0.00  0.00    +0.029 HD
ATOM     16  H   UNL     1      -2.053  -0.182  -2.030  0.00  0.00    +0.029 HD
ATOM     17  H   UNL     1      -1.203   1.515  -0.528  0.00  0.00    +0.055 HD
ENDROOT
BRANCH   9  18
ATOM     18  N   UNL     1      -1.974   0.230   0.935  0.00  0.00    -0.293 N 
ATOM     19  C   UNL     1      -3.276   0.652   0.879  0.00  0.00    +0.300 C 
ATOM     20  O   UNL     1      -3.741   1.332  -0.024  0.00  0.00    -0.253 OA
ATOM     21  N   UNL     1      -3.983   0.223   1.974  0.00  0.00    -0.295 N 
ATOM     22  H   UNL     1      -1.812  -0.625   1.445  0.00  0.00    +0.151 HD
ATOM     23  H   UNL     1      -3.415   0.129   2.804  0.00  0.00    +0.151 HD
BRANCH  21  24
ATOM     24  C   UNL     1      -5.341   0.685   2.200  0.00  0.00    +0.039 C 
ATOM     25  H   UNL     1      -5.332   1.779   2.186  0.00  0.00    +0.051 HD
ATOM     26  H   UNL     1      -5.617   0.385   3.218  0.00  0.00    +0.051 HD
BRANCH  24  27
ATOM     27  C   UNL     1      -6.341   0.081   1.244  0.00  0.00    -0.018 A 
ATOM     28  C   UNL     1      -6.463  -1.321   1.168  0.00  0.00    -0.054 A 
ATOM     29  C   UNL     1      -7.413  -1.910   0.330  0.00  0.00    -0.026 A 
ATOM     30  C   UNL     1      -8.257  -1.107  -0.429  0.00  0.00    +0.124 A 
ATOM     31  F   UNL     1      -9.169  -1.679  -1.225  0.00  0.00    -0.205 F 
ATOM     32  C   UNL     1      -8.164   0.275  -0.377  0.00  0.00    -0.014 A 
ATOM     33  C   UNL     1      -7.199   0.864   0.447  0.00  0.00    +0.044 A 
ATOM     34  H   UNL     1      -5.814  -1.960   1.764  0.00  0.00    +0.062 HD
ATOM     35  H   UNL     1      -7.503  -2.991   0.267  0.00  0.00    +0.065 HD
ATOM     36  H   UNL     1      -8.833   0.884  -0.980  0.00  0.00    +0.065 HD
BRANCH  33  37
ATOM     37  C   UNL     1      -7.136   2.336   0.432  0.00  0.00    +0.242 C 
ATOM     38  N   UNL     1      -6.030   2.865  -0.162  0.00  0.00    -0.325 N 
ATOM     39  O   UNL     1      -8.038   3.014   0.904  0.00  0.00    -0.270 OA
ATOM     40  H   UNL     1      -5.208   2.291  -0.369  0.00  0.00    +0.145 HD
ATOM     41  H   UNL     1      -5.889   3.861  -0.105  0.00  0.00    +0.145 HD
ENDBRANCH  33  37
ENDBRANCH  24  27
ENDBRANCH  21  24
ENDBRANCH   9  18
BRANCH   1  42
ATOM     42  N   UNL     1       4.478  -0.543   0.527  0.00  0.00    -0.337 N 
ATOM     43  H   UNL     1       4.881   0.173   1.131  0.00  0.00    +0.147 HD
BRANCH  42  44
ATOM     44  C   UNL     1       5.355  -0.843  -0.615  0.00  0.00    +0.046 C 
ATOM     45  H   UNL     1       4.966  -0.373  -1.527  0.00  0.00    +0.055 HD
BRANCH  44  46
ATOM     46  C   UNL     1       6.738  -0.272  -0.346  0.00  0.00    +0.008 A 
ATOM     47  C   UNL     1       7.470  -0.604   0.810  0.00  0.00    -0.054 A 
ATOM     48  C   UNL     1       8.739  -0.060   1.034  0.00  0.00    -0.061 A 
ATOM     49  C   UNL     1       9.296   0.825   0.109  0.00  0.00    -0.059 A 
ATOM     50  C   UNL     1       8.586   1.158  -1.043  0.00  0.00    -0.026 A 
ATOM     51  C   UNL     1       7.324   0.608  -1.263  0.00  0.00    +0.128 A 
ATOM     52  F   UNL     1       6.676   0.933  -2.392  0.00  0.00    -0.205 F 
ATOM     53  H   UNL     1       7.049  -1.292   1.545  0.00  0.00    +0.062 HD
ATOM     54  H   UNL     1       9.292  -0.323   1.934  0.00  0.00    +0.062 HD
ATOM     55  H   UNL     1      10.284   1.248   0.284  0.00  0.00    +0.062 HD
ATOM     56  H   UNL     1       9.005   1.842  -1.775  0.00  0.00    +0.065 HD
ENDBRANCH  44  46
BRANCH  44  57
ATOM     57  C   UNL     1       5.436  -2.359  -0.824  0.00  0.00    -0.042 C 
ATOM     58  H   UNL     1       6.116  -2.607  -1.646  0.00  0.00    +0.025 HD
ATOM     59  H   UNL     1       5.794  -2.875   0.073  0.00  0.00    +0.025 HD
ATOM     60  H   UNL     1       4.454  -2.780  -1.064  0.00  0.00    +0.025 HD
ENDBRANCH  44  57
ENDBRANCH  42  44
ENDBRANCH   1  42
TORSDOF 8
