REMARK  Name = 
REMARK  6 active torsions:
REMARK  status: ('A' for Active; 'I' for Inactive)
REMARK    1  A    between atoms: C_1  and  C_2
REMARK    2  A    between atoms: C_2  and  C_3
REMARK    3  A    between atoms: C_5  and  C_6
REMARK    4  A    between atoms: C_10  and  C_12
REMARK    5  A    between atoms: C_14  and  C_15
REMARK    6  A    between atoms: N_16  and  C_17
REMARK                            x       y       z     vdW  Elec       q    Type
REMARK                         _______ _______ _______ _____ _____    ______ ____
ROOT
ATOM      1  C   UNL     1       2.379  -1.392  -1.655  0.00  0.00    +0.024 C 
ATOM      2  C   UNL     1       2.737   0.003  -2.189  0.00  0.00    -0.027 C 
ATOM      3  C   UNL     1       1.690   0.508  -3.178  0.00  0.00    +0.016 C 
ATOM      4  N   UNL     1       0.359   0.444  -2.589  0.00  0.00    -0.296 N 
ATOM      5  C   UNL     1      -0.517   1.522  -2.790  0.00  0.00    +0.267 C 
ATOM      6  O   UNL     1      -0.261   2.407  -3.612  0.00  0.00    -0.268 OA
ATOM      7  C   UNL     1      -0.042  -0.880  -2.115  0.00  0.00    +0.016 C 
ATOM      8  C   UNL     1       0.951  -1.401  -1.081  0.00  0.00    -0.027 C 
ATOM      9  H   UNL     1       2.399  -2.092  -2.503  0.00  0.00    +0.038 HD
ATOM     10  H   UNL     1       2.809   0.710  -1.351  0.00  0.00    +0.029 HD
ATOM     11  H   UNL     1       3.722  -0.013  -2.672  0.00  0.00    +0.029 HD
ATOM     12  H   UNL     1       1.940   1.532  -3.474  0.00  0.00    +0.046 HD
ATOM     13  H   UNL     1       1.684  -0.106  -4.088  0.00  0.00    +0.046 HD
ATOM     14  H   UNL     1      -1.060  -0.911  -1.727  0.00  0.00    +0.046 HD
ATOM     15  H   UNL     1      -0.045  -1.541  -2.993  0.00  0.00    +0.046 HD
ATOM     16  H   UNL     1       0.672  -2.417  -0.778  0.00  0.00    +0.029 HD
ATOM     17  H   UNL     1       0.897  -0.773  -0.182  0.00  0.00    +0.029 HD
ENDROOT
BRANCH   1  20
ATOM     18  C   UNL     1       4.449  -2.021   1.166  0.00  0.00    +0.125 A 
ATOM     19  N   UNL     1       3.369  -1.457   0.660  0.00  0.00    -0.216 NA
ATOM     20  C   UNL     1       3.392  -1.850  -0.657  0.00  0.00    +0.154 A 
ATOM     21  N   UNL     1       4.426  -2.642  -0.990  0.00  0.00    -0.157 NA
ATOM     22  N   UNL     1       5.083  -2.729   0.179  0.00  0.00    -0.262 N 
ATOM     23  H   UNL     1       5.941  -3.273   0.225  0.00  0.00    +0.190 HD
BRANCH  18  24
ATOM     24  C   UNL     1       4.945  -1.949   2.564  0.00  0.00    +0.004 C 
ATOM     25  H   UNL     1       5.925  -2.442   2.651  0.00  0.00    +0.034 HD
ATOM     26  H   UNL     1       4.247  -2.493   3.213  0.00  0.00    +0.034 HD
BRANCH  24  27
ATOM     27  C   UNL     1       5.069  -0.507   3.044  0.00  0.00    -0.058 C 
ATOM     28  H   UNL     1       5.434  -0.480   4.076  0.00  0.00    +0.023 HD
ATOM     29  H   UNL     1       5.771   0.059   2.424  0.00  0.00    +0.023 HD
ATOM     30  H   UNL     1       4.098   0.004   3.016  0.00  0.00    +0.023 HD
ENDBRANCH  24  27
ENDBRANCH  18  24
ENDBRANCH   1  20
BRANCH   5  31
ATOM     31  C   UNL     1      -1.744   1.626  -1.970  0.00  0.00    +0.148 A 
ATOM     32  C   UNL     1      -2.865   2.433  -2.272  0.00  0.00    -0.008 A 
ATOM     33  C   UNL     1      -3.725   2.325  -1.197  0.00  0.00    +0.043 A 
ATOM     34  N   UNL     1      -3.136   1.411  -0.328  0.00  0.00    -0.236 N 
ATOM     35  N   UNL     1      -1.894   1.062  -0.763  0.00  0.00    -0.161 NA
ATOM     36  H   UNL     1      -2.993   3.058  -3.147  0.00  0.00    +0.066 HD
BRANCH  34  37
ATOM     37  C   UNL     1      -3.614   0.829   0.891  0.00  0.00    +0.066 A 
ATOM     38  C   UNL     1      -2.698   0.138   1.712  0.00  0.00    -0.034 A 
ATOM     39  C   UNL     1      -3.111  -0.443   2.914  0.00  0.00    -0.024 A 
ATOM     40  C   UNL     1      -4.441  -0.348   3.296  0.00  0.00    +0.124 A 
ATOM     41  F   UNL     1      -4.839  -0.899   4.450  0.00  0.00    -0.205 F 
ATOM     42  C   UNL     1      -5.366   0.309   2.495  0.00  0.00    -0.024 A 
ATOM     43  C   UNL     1      -4.957   0.894   1.289  0.00  0.00    -0.034 A 
ATOM     44  H   UNL     1      -1.645   0.058   1.439  0.00  0.00    +0.064 HD
ATOM     45  H   UNL     1      -2.401  -0.964   3.548  0.00  0.00    +0.065 HD
ATOM     46  H   UNL     1      -6.405   0.356   2.807  0.00  0.00    +0.065 HD
ATOM     47  H   UNL     1      -5.725   1.356   0.681  0.00  0.00    +0.064 HD
ENDBRANCH  34  37
BRANCH  33  48
ATOM     48  C   UNL     1      -4.981   3.085  -0.977  0.00  0.00    -0.022 C 
ATOM     49  H   UNL     1      -5.017   3.964  -1.633  0.00  0.00    +0.029 HD
ATOM     50  H   UNL     1      -5.856   2.471  -1.214  0.00  0.00    +0.029 HD
ATOM     51  H   UNL     1      -5.052   3.459   0.049  0.00  0.00    +0.029 HD
ENDBRANCH  33  48
ENDBRANCH   5  31
TORSDOF 6
