REMARK  Name = 
REMARK  8 active torsions:
REMARK  status: ('A' for Active; 'I' for Inactive)
REMARK    1  A    between atoms: C_1  and  C_2
REMARK    2  A    between atoms: C_2  and  S_3
REMARK    3  A    between atoms: C_2  and  C_10
REMARK    4  A    between atoms: S_3  and  C_4
REMARK    5  A    between atoms: N_8  and  C_9
REMARK    6  A    between atoms: C_12  and  C_13
REMARK    7  A    between atoms: C_16  and  N_17
REMARK    8  A    between atoms: C_24  and  C_25
REMARK                            x       y       z     vdW  Elec       q    Type
REMARK                         _______ _______ _______ _____ _____    ______ ____
ROOT
ATOM      1  C   UNL     1       1.485  -1.140   0.996  0.00  0.00    -0.013 A 
ATOM      2  C   UNL     1       1.576  -0.419   2.203  0.00  0.00    -0.039 A 
ATOM      3  C   UNL     1       0.526   0.382   2.655  0.00  0.00    +0.054 A 
ATOM      4  C   UNL     1      -0.663   0.447   1.926  0.00  0.00    -0.021 A 
ATOM      5  C   UNL     1      -0.824  -0.293   0.745  0.00  0.00    +0.057 A 
ATOM      6  C   UNL     1       0.274  -1.049   0.259  0.00  0.00    +0.067 A 
ATOM      7 CL   UNL     1       0.216  -1.717  -1.353  0.00  0.00    -0.081 Cl
ATOM      8  H   UNL     1       2.492  -0.448   2.794  0.00  0.00    +0.063 HD
ATOM      9  H   UNL     1      -1.480   1.040   2.329  0.00  0.00    +0.065 HD
ENDROOT
BRANCH   5  10
ATOM     10  N   UNL     1      -2.087  -0.251   0.095  0.00  0.00    -0.262 N 
ATOM     11  C   UNL     1      -2.897   0.954   0.010  0.00  0.00    +0.046 C 
ATOM     12  C   UNL     1      -4.085   0.505  -0.784  0.00  0.00    -0.006 A 
ATOM     13  C   UNL     1      -4.003  -0.866  -1.010  0.00  0.00    +0.042 A 
ATOM     14  C   UNL     1      -4.974  -1.571  -1.695  0.00  0.00    -0.049 A 
ATOM     15  C   UNL     1      -6.069  -0.855  -2.175  0.00  0.00    -0.060 A 
ATOM     16  C   UNL     1      -6.167   0.533  -1.958  0.00  0.00    -0.050 A 
ATOM     17  C   UNL     1      -5.174   1.237  -1.250  0.00  0.00    +0.060 A 
ATOM     18  C   UNL     1      -2.762  -1.365  -0.406  0.00  0.00    +0.251 C 
ATOM     19  O   UNL     1      -2.486  -2.547  -0.338  0.00  0.00    -0.270 OA
ATOM     20  H   UNL     1      -3.214   1.271   1.009  0.00  0.00    +0.052 HD
ATOM     21  H   UNL     1      -2.334   1.738  -0.507  0.00  0.00    +0.052 HD
ATOM     22  H   UNL     1      -4.880  -2.641  -1.851  0.00  0.00    +0.063 HD
ATOM     23  H   UNL     1      -6.854  -1.373  -2.722  0.00  0.00    +0.062 HD
ATOM     24  H   UNL     1      -7.036   1.062  -2.349  0.00  0.00    +0.062 HD
BRANCH  17  25
ATOM     25  C   UNL     1      -5.271   2.723  -1.028  0.00  0.00    +0.418 C 
ATOM     26  F   UNL     1      -4.419   3.417  -1.830  0.00  0.00    -0.166 F 
ATOM     27  F   UNL     1      -4.953   3.079   0.249  0.00  0.00    -0.166 F 
ATOM     28  F   UNL     1      -6.511   3.229  -1.260  0.00  0.00    -0.166 F 
ENDBRANCH  17  25
ENDBRANCH   5  10
BRANCH   1  29
ATOM     29  C   UNL     1       2.664  -1.984   0.514  0.00  0.00    +0.036 C 
ATOM     30  H   UNL     1       2.236  -2.857   0.007  0.00  0.00    +0.046 HD
BRANCH  29  31
ATOM     31  C   UNL     1       3.539  -2.609   1.611  0.00  0.00    -0.049 C 
ATOM     32  H   UNL     1       2.918  -3.143   2.343  0.00  0.00    +0.024 HD
ATOM     33  H   UNL     1       4.237  -3.338   1.184  0.00  0.00    +0.024 HD
ATOM     34  H   UNL     1       4.128  -1.877   2.165  0.00  0.00    +0.024 HD
ENDBRANCH  29  31
BRANCH  29  35
ATOM     35  S   UNL     1       3.689  -1.162  -0.764  0.00  0.00    -0.078 S 
BRANCH  35  36
ATOM     36  C   UNL     1       4.533   0.087   0.077  0.00  0.00    +0.192 A 
ATOM     37  N   UNL     1       4.283   0.565   1.272  0.00  0.00    -0.123 NA
ATOM     38  N   UNL     1       5.201   1.556   1.537  0.00  0.00    -0.137 NA
ATOM     39  C   UNL     1       5.988   1.655   0.491  0.00  0.00    +0.120 A 
ATOM     40  N   UNL     1       5.604   0.750  -0.455  0.00  0.00    -0.312 N 
ATOM     41  H   UNL     1       6.817   2.338   0.379  0.00  0.00    +0.105 HD
BRANCH  40  42
ATOM     42  C   UNL     1       6.226   0.562  -1.737  0.00  0.00    +0.015 C 
ATOM     43  H   UNL     1       7.128   1.176  -1.796  0.00  0.00    +0.046 HD
ATOM     44  H   UNL     1       6.502  -0.490  -1.852  0.00  0.00    +0.046 HD
ATOM     45  H   UNL     1       5.519   0.866  -2.515  0.00  0.00    +0.046 HD
ENDBRANCH  40  42
ENDBRANCH  35  36
ENDBRANCH  29  35
ENDBRANCH   1  29
BRANCH   3  46
ATOM     46  C   UNL     1       0.650   1.116   3.881  0.00  0.00    +0.099 C 
ATOM     47  N   UNL     1       0.713   1.706   4.878  0.00  0.00    -0.191 NA
ENDBRANCH   3  46
TORSDOF 8
