REMARK  Name = 
REMARK  5 active torsions:
REMARK  status: ('A' for Active; 'I' for Inactive)
REMARK    1  A    between atoms: C_2  and  C_19
REMARK    2  A    between atoms: N_3  and  C_4
REMARK    3  A    between atoms: C_7  and  C_8
REMARK    4  A    between atoms: C_8  and  C_9
REMARK    5  A    between atoms: C_9  and  C_10
REMARK                            x       y       z     vdW  Elec       q    Type
REMARK                         _______ _______ _______ _____ _____    ______ ____
ROOT
ATOM      1  C   UNL     1       1.219   0.751   1.287  0.00  0.00    +0.034 A 
ATOM      2  C   UNL     1       0.524  -0.384   1.720  0.00  0.00    -0.040 A 
ATOM      3  C   UNL     1      -0.815  -0.296   2.113  0.00  0.00    -0.057 A 
ATOM      4  C   UNL     1      -1.484   0.930   2.081  0.00  0.00    -0.047 A 
ATOM      5  C   UNL     1      -0.790   2.064   1.643  0.00  0.00    -0.057 A 
ATOM      6  C   UNL     1       0.551   1.975   1.250  0.00  0.00    -0.040 A 
ATOM      7  H   UNL     1       1.008  -1.357   1.758  0.00  0.00    +0.064 HD
ATOM      8  H   UNL     1      -1.334  -1.196   2.439  0.00  0.00    +0.062 HD
ATOM      9  H   UNL     1      -1.285   3.032   1.603  0.00  0.00    +0.062 HD
ATOM     10  H   UNL     1       1.042   2.883   0.916  0.00  0.00    +0.064 HD
ENDROOT
BRANCH   1  13
ATOM     11  O   UNL     1       3.280   2.761   0.483  0.00  0.00    -0.270 OA
ATOM     12  C   UNL     1       3.457   1.549   0.498  0.00  0.00    +0.250 C 
ATOM     13  N   UNL     1       2.562   0.574   0.897  0.00  0.00    -0.281 N 
ATOM     14  H   UNL     1       2.921  -0.369   0.982  0.00  0.00    +0.155 HD
BRANCH  12  15
ATOM     15  C   UNL     1       4.784   1.035   0.090  0.00  0.00    +0.062 A 
ATOM     16  C   UNL     1       5.943   1.745   0.447  0.00  0.00    -0.048 A 
ATOM     17  C   UNL     1       7.225   1.269   0.097  0.00  0.00    -0.059 A 
ATOM     18  C   UNL     1       7.378   0.081  -0.626  0.00  0.00    -0.036 A 
ATOM     19  C   UNL     1       6.227  -0.584  -0.982  0.00  0.00    +0.068 A 
ATOM     20  N   UNL     1       6.081  -1.751  -1.723  0.00  0.00    -0.306 N 
ATOM     21  C   UNL     1       4.716  -2.018  -1.884  0.00  0.00    +0.325 A 
ATOM     22  O   UNL     1       4.222  -2.940  -2.506  0.00  0.00    -0.247 OA
ATOM     23  N   UNL     1       4.026  -1.010  -1.197  0.00  0.00    -0.305 N 
ATOM     24  C   UNL     1       4.954  -0.123  -0.642  0.00  0.00    +0.079 A 
ATOM     25  H   UNL     1       5.854   2.675   1.008  0.00  0.00    +0.063 HD
ATOM     26  H   UNL     1       8.104   1.839   0.391  0.00  0.00    +0.062 HD
ATOM     27  H   UNL     1       8.360  -0.284  -0.902  0.00  0.00    +0.064 HD
ATOM     28  H   UNL     1       6.811  -2.308  -2.137  0.00  0.00    +0.170 HD
ATOM     29  H   UNL     1       3.022  -0.912  -1.220  0.00  0.00    +0.170 HD
ENDBRANCH  12  15
ENDBRANCH   1  13
BRANCH   4  30
ATOM     30  C   UNL     1      -2.938   1.027   2.482  0.00  0.00    -0.019 C 
ATOM     31  H   UNL     1      -3.163   0.279   3.252  0.00  0.00    +0.032 HD
ATOM     32  H   UNL     1      -3.096   2.001   2.963  0.00  0.00    +0.032 HD
BRANCH  30  33
ATOM     33  C   UNL     1      -3.883   0.905   1.286  0.00  0.00    +0.028 C 
ATOM     34  H   UNL     1      -4.866   1.296   1.577  0.00  0.00    +0.036 HD
ATOM     35  H   UNL     1      -3.511   1.505   0.449  0.00  0.00    +0.036 HD
BRANCH  33  36
ATOM     36  C   UNL     1      -4.105  -0.532   0.840  0.00  0.00    +0.216 C 
ATOM     37  O   UNL     1      -3.822  -1.495   1.553  0.00  0.00    -0.276 OA
ATOM     38  N   UNL     1      -4.696  -0.697  -0.395  0.00  0.00    -0.301 N 
ATOM     39  C   UNL     1      -4.955  -2.019  -0.936  0.00  0.00    +0.015 C 
ATOM     40  C   UNL     1      -5.310  -1.767  -2.395  0.00  0.00    -0.036 C 
ATOM     41  C   UNL     1      -5.958  -0.389  -2.354  0.00  0.00    -0.036 C 
ATOM     42  C   UNL     1      -5.127   0.346  -1.311  0.00  0.00    +0.015 C 
ATOM     43  H   UNL     1      -4.085  -2.672  -0.817  0.00  0.00    +0.046 HD
ATOM     44  H   UNL     1      -5.801  -2.447  -0.387  0.00  0.00    +0.046 HD
ATOM     45  H   UNL     1      -5.966  -2.538  -2.808  0.00  0.00    +0.028 HD
ATOM     46  H   UNL     1      -4.398  -1.729  -3.002  0.00  0.00    +0.028 HD
ATOM     47  H   UNL     1      -5.958   0.114  -3.325  0.00  0.00    +0.028 HD
ATOM     48  H   UNL     1      -6.996  -0.478  -2.012  0.00  0.00    +0.028 HD
ATOM     49  H   UNL     1      -4.232   0.793  -1.759  0.00  0.00    +0.046 HD
ATOM     50  H   UNL     1      -5.695   1.121  -0.789  0.00  0.00    +0.046 HD
ENDBRANCH  33  36
ENDBRANCH  30  33
ENDBRANCH   4  30
TORSDOF 5
