REMARK  Name = 
REMARK  3 active torsions:
REMARK  status: ('A' for Active; 'I' for Inactive)
REMARK    1  A    between atoms: C_2  and  C_17
REMARK    2  A    between atoms: N_3  and  C_4
REMARK    3  A    between atoms: N_7  and  C_8
REMARK                            x       y       z     vdW  Elec       q    Type
REMARK                         _______ _______ _______ _____ _____    ______ ____
ROOT
ATOM      1  C   UNL     1      -0.489   0.084   0.024  0.00  0.00    +0.026 C 
ATOM      2  C   UNL     1       0.234   0.529   1.308  0.00  0.00    -0.019 C 
ATOM      3  C   UNL     1       1.409  -0.380   1.655  0.00  0.00    +0.014 C 
ATOM      4  N   UNL     1       2.214  -0.630   0.463  0.00  0.00    -0.330 N 
ATOM      5  C   UNL     1       1.527  -1.235  -0.689  0.00  0.00    +0.014 C 
ATOM      6  C   UNL     1       0.013  -1.271  -0.486  0.00  0.00    -0.019 C 
ATOM      7  H   UNL     1      -0.286   0.834  -0.753  0.00  0.00    +0.050 HD
ATOM      8  H   UNL     1       0.597   1.555   1.165  0.00  0.00    +0.030 HD
ATOM      9  H   UNL     1      -0.448   0.567   2.166  0.00  0.00    +0.030 HD
ATOM     10  H   UNL     1       1.031  -1.341   2.028  0.00  0.00    +0.046 HD
ATOM     11  H   UNL     1       1.983   0.031   2.492  0.00  0.00    +0.046 HD
ATOM     12  H   UNL     1       1.731  -0.655  -1.599  0.00  0.00    +0.046 HD
ATOM     13  H   UNL     1       1.894  -2.255  -0.849  0.00  0.00    +0.046 HD
ATOM     14  H   UNL     1      -0.256  -2.063   0.225  0.00  0.00    +0.030 HD
ATOM     15  H   UNL     1      -0.473  -1.539  -1.432  0.00  0.00    +0.030 HD
ENDROOT
BRANCH   4  16
ATOM     16  C   UNL     1       3.465  -0.055   0.269  0.00  0.00    +0.030 A 
ATOM     17  C   UNL     1       4.363  -0.579  -0.680  0.00  0.00    -0.039 A 
ATOM     18  C   UNL     1       5.632  -0.024  -0.892  0.00  0.00    -0.042 A 
ATOM     19  C   UNL     1       6.033   1.078  -0.150  0.00  0.00    +0.041 A 
ATOM     20 CL   UNL     1       7.588   1.766  -0.403  0.00  0.00    -0.084 Cl
ATOM     21  C   UNL     1       5.176   1.624   0.796  0.00  0.00    -0.042 A 
ATOM     22  C   UNL     1       3.910   1.059   1.000  0.00  0.00    -0.039 A 
ATOM     23  H   UNL     1       4.096  -1.456  -1.263  0.00  0.00    +0.064 HD
ATOM     24  H   UNL     1       6.295  -0.465  -1.631  0.00  0.00    +0.063 HD
ATOM     25  H   UNL     1       5.477   2.491   1.377  0.00  0.00    +0.063 HD
ATOM     26  H   UNL     1       3.268   1.540   1.731  0.00  0.00    +0.064 HD
ENDBRANCH   4  16
BRANCH   1  29
ATOM     27  O   UNL     1      -2.447   0.364  -2.004  0.00  0.00    -0.270 OA
ATOM     28  C   UNL     1      -2.810   0.176  -0.849  0.00  0.00    +0.244 C 
ATOM     29  N   UNL     1      -1.939   0.059   0.216  0.00  0.00    -0.308 N 
ATOM     30  H   UNL     1      -2.301  -0.045   1.153  0.00  0.00    +0.149 HD
BRANCH  28  31
ATOM     31  C   UNL     1      -4.261   0.092  -0.536  0.00  0.00    +0.040 A 
ATOM     32  C   UNL     1      -5.152   0.775  -1.364  0.00  0.00    -0.031 A 
ATOM     33  C   UNL     1      -6.501   0.693  -1.075  0.00  0.00    +0.028 A 
ATOM     34  N   UNL     1      -7.002  -0.017  -0.042  0.00  0.00    -0.263 NA
ATOM     35  C   UNL     1      -6.119  -0.686   0.729  0.00  0.00    +0.028 A 
ATOM     36  C   UNL     1      -4.750  -0.667   0.527  0.00  0.00    -0.031 A 
ATOM     37  H   UNL     1      -4.802   1.357  -2.210  0.00  0.00    +0.064 HD
ATOM     38  H   UNL     1      -7.237   1.210  -1.685  0.00  0.00    +0.083 HD
ATOM     39  H   UNL     1      -6.559  -1.264   1.538  0.00  0.00    +0.083 HD
ATOM     40  H   UNL     1      -4.106  -1.256   1.167  0.00  0.00    +0.064 HD
ENDBRANCH  28  31
ENDBRANCH   1  29
TORSDOF 3
