REMARK  Name = 
REMARK  9 active torsions:
REMARK  status: ('A' for Active; 'I' for Inactive)
REMARK    1  A    between atoms: C_1  and  C_2
REMARK    2  A    between atoms: C_2  and  C_3
REMARK    3  A    between atoms: C_2  and  O_10
REMARK    4  A    between atoms: C_3  and  C_4
REMARK    5  A    between atoms: O_10  and  C_11
REMARK    6  A    between atoms: C_14  and  C_15
REMARK    7  A    between atoms: C_15  and  N_16
REMARK    8  A    between atoms: N_19  and  C_20
REMARK    9  A    between atoms: C_29  and  C_30
REMARK                            x       y       z     vdW  Elec       q    Type
REMARK                         _______ _______ _______ _____ _____    ______ ____
ROOT
ATOM      1  C   UNL     1       2.692  -0.981   1.321  0.00  0.00    +0.122 A 
ATOM      2  C   UNL     1       1.823  -2.069   1.146  0.00  0.00    -0.020 A 
ATOM      3  C   UNL     1       0.470  -1.965   1.482  0.00  0.00    -0.053 A 
ATOM      4  C   UNL     1      -0.044  -0.751   1.978  0.00  0.00    -0.018 A 
ATOM      5  C   UNL     1       0.826   0.356   2.088  0.00  0.00    +0.045 A 
ATOM      6  C   UNL     1       2.190   0.236   1.781  0.00  0.00    -0.008 A 
ATOM      7  H   UNL     1       2.201  -3.004   0.728  0.00  0.00    +0.065 HD
ATOM      8  H   UNL     1      -0.191  -2.827   1.327  0.00  0.00    +0.062 HD
ATOM      9  H   UNL     1       2.819   1.121   1.839  0.00  0.00    +0.066 HD
ENDROOT
BRANCH   5  10
ATOM     10  C   UNL     1       0.304   1.703   2.412  0.00  0.00    +0.242 C 
ATOM     11  N   UNL     1       0.881   2.328   3.479  0.00  0.00    -0.325 N 
ATOM     12  O   UNL     1      -0.590   2.204   1.746  0.00  0.00    -0.270 OA
ATOM     13  H   UNL     1       0.434   3.184   3.780  0.00  0.00    +0.145 HD
ATOM     14  H   UNL     1       1.411   1.811   4.160  0.00  0.00    +0.145 HD
ENDBRANCH   5  10
BRANCH   4  15
ATOM     15  C   UNL     1      -1.504  -0.654   2.333  0.00  0.00    +0.039 C 
ATOM     16  H   UNL     1      -1.868  -1.629   2.683  0.00  0.00    +0.051 HD
ATOM     17  H   UNL     1      -1.671   0.047   3.158  0.00  0.00    +0.051 HD
BRANCH  15  18
ATOM     18  N   UNL     1      -2.285  -0.237   1.196  0.00  0.00    -0.295 N 
ATOM     19  C   UNL     1      -3.649  -0.319   1.258  0.00  0.00    +0.300 C 
ATOM     20  O   UNL     1      -4.271  -0.815   2.189  0.00  0.00    -0.253 OA
ATOM     21  N   UNL     1      -4.223   0.189   0.126  0.00  0.00    -0.293 N 
ATOM     22  H   UNL     1      -1.939   0.592   0.712  0.00  0.00    +0.151 HD
ATOM     23  H   UNL     1      -3.647   0.127  -0.708  0.00  0.00    +0.151 HD
BRANCH  21  24
ATOM     24  C   UNL     1      -5.647   0.055  -0.083  0.00  0.00    +0.050 C 
ATOM     25  C   UNL     1      -6.080  -1.409  -0.331  0.00  0.00    -0.026 C 
ATOM     26  C   UNL     1      -7.306  -1.355  -1.251  0.00  0.00    -0.025 C 
ATOM     27  C   UNL     1      -7.039  -0.101  -2.024  0.00  0.00    -0.042 A 
ATOM     28  C   UNL     1      -7.627   0.308  -3.212  0.00  0.00    -0.058 A 
ATOM     29  C   UNL     1      -7.260   1.547  -3.747  0.00  0.00    -0.061 A 
ATOM     30  C   UNL     1      -6.329   2.363  -3.082  0.00  0.00    -0.061 A 
ATOM     31  C   UNL     1      -5.753   1.948  -1.876  0.00  0.00    -0.057 A 
ATOM     32  C   UNL     1      -6.106   0.706  -1.361  0.00  0.00    -0.024 A 
ATOM     33  H   UNL     1      -6.189   0.476   0.772  0.00  0.00    +0.055 HD
ATOM     34  H   UNL     1      -6.289  -1.946   0.602  0.00  0.00    +0.029 HD
ATOM     35  H   UNL     1      -5.277  -1.966  -0.837  0.00  0.00    +0.029 HD
ATOM     36  H   UNL     1      -7.361  -2.243  -1.889  0.00  0.00    +0.031 HD
ATOM     37  H   UNL     1      -8.230  -1.253  -0.673  0.00  0.00    +0.031 HD
ATOM     38  H   UNL     1      -8.354  -0.317  -3.719  0.00  0.00    +0.062 HD
ATOM     39  H   UNL     1      -7.703   1.884  -4.684  0.00  0.00    +0.062 HD
ATOM     40  H   UNL     1      -6.061   3.329  -3.507  0.00  0.00    +0.062 HD
ATOM     41  H   UNL     1      -5.048   2.589  -1.350  0.00  0.00    +0.062 HD
ENDBRANCH  21  24
ENDBRANCH  15  18
ENDBRANCH   4  15
BRANCH   1  42
ATOM     42  O   UNL     1       3.979  -1.192   0.916  0.00  0.00    -0.489 OA
BRANCH  42  43
ATOM     43  C   UNL     1       5.026  -0.508   1.614  0.00  0.00    +0.101 C 
ATOM     44  H   UNL     1       4.683  -0.188   2.607  0.00  0.00    +0.073 HD
BRANCH  43  45
ATOM     45  C   UNL     1       6.142  -1.524   1.845  0.00  0.00    -0.027 C 
ATOM     46  H   UNL     1       5.770  -2.350   2.456  0.00  0.00    +0.027 HD
ATOM     47  H   UNL     1       6.995  -1.075   2.355  0.00  0.00    +0.027 HD
ATOM     48  H   UNL     1       6.484  -1.976   0.906  0.00  0.00    +0.027 HD
ENDBRANCH  43  45
BRANCH  43  49
ATOM     49  C   UNL     1       5.519   0.724   0.835  0.00  0.00    +0.009 C 
ATOM     50  H   UNL     1       6.264   1.241   1.453  0.00  0.00    +0.035 HD
ATOM     51  H   UNL     1       4.699   1.433   0.705  0.00  0.00    +0.035 HD
BRANCH  49  52
ATOM     52  C   UNL     1       6.097   0.465  -0.538  0.00  0.00    -0.044 A 
ATOM     53  C   UNL     1       7.477   0.629  -0.777  0.00  0.00    -0.058 A 
ATOM     54  C   UNL     1       8.006   0.399  -2.049  0.00  0.00    -0.061 A 
ATOM     55  C   UNL     1       7.165  -0.000  -3.096  0.00  0.00    -0.062 A 
ATOM     56  C   UNL     1       5.791  -0.165  -2.871  0.00  0.00    -0.061 A 
ATOM     57  C   UNL     1       5.261   0.071  -1.602  0.00  0.00    -0.058 A 
ATOM     58  H   UNL     1       8.157   0.941   0.022  0.00  0.00    +0.062 HD
ATOM     59  H   UNL     1       9.079   0.534  -2.214  0.00  0.00    +0.062 HD
ATOM     60  H   UNL     1       7.578  -0.186  -4.083  0.00  0.00    +0.062 HD
ATOM     61  H   UNL     1       5.127  -0.479  -3.683  0.00  0.00    +0.062 HD
ATOM     62  H   UNL     1       4.188  -0.058  -1.450  0.00  0.00    +0.062 HD
ENDBRANCH  49  52
ENDBRANCH  43  49
ENDBRANCH  42  43
ENDBRANCH   1  42
TORSDOF 9
