REMARK  Name = 
REMARK  7 active torsions:
REMARK  status: ('A' for Active; 'I' for Inactive)
REMARK    1  A    between atoms: C_1  and  C_2
REMARK    2  A    between atoms: C_2  and  C_3
REMARK    3  A    between atoms: C_2  and  C_10
REMARK    4  A    between atoms: C_3  and  C_4
REMARK    5  A    between atoms: N_8  and  C_9
REMARK    6  A    between atoms: C_14  and  C_16
REMARK    7  A    between atoms: C_19  and  N_23
REMARK                            x       y       z     vdW  Elec       q    Type
REMARK                         _______ _______ _______ _____ _____    ______ ____
ROOT
ATOM      1  C   UNL     1       3.226  -1.888   0.180  0.00  0.00    -0.044 A 
ATOM      2  C   UNL     1       3.451  -3.134   0.779  0.00  0.00    -0.058 A 
ATOM      3  C   UNL     1       2.381  -3.893   1.252  0.00  0.00    -0.061 A 
ATOM      4  C   UNL     1       1.076  -3.409   1.141  0.00  0.00    -0.052 A 
ATOM      5  C   UNL     1       0.817  -2.161   0.557  0.00  0.00    +0.004 A 
ATOM      6  C   UNL     1       1.904  -1.415   0.076  0.00  0.00    -0.049 A 
ATOM      7  H   UNL     1       4.460  -3.527   0.883  0.00  0.00    +0.062 HD
ATOM      8  H   UNL     1       2.561  -4.862   1.710  0.00  0.00    +0.062 HD
ATOM      9  H   UNL     1       0.256  -4.018   1.518  0.00  0.00    +0.062 HD
ATOM     10  H   UNL     1       1.729  -0.452  -0.396  0.00  0.00    +0.063 HD
ENDROOT
BRANCH   5  11
ATOM     11  C   UNL     1      -0.562  -1.661   0.456  0.00  0.00    +0.118 A 
ATOM     12  C   UNL     1      -1.021  -0.323   0.211  0.00  0.00    +0.118 A 
ATOM     13  C   UNL     1      -2.404  -0.400   0.203  0.00  0.00    +0.106 A 
ATOM     14  C   UNL     1      -3.232   0.700  -0.012  0.00  0.00    +0.058 A 
ATOM     15  C   UNL     1      -2.546   1.899  -0.221  0.00  0.00    -0.020 A 
ATOM     16  C   UNL     1      -1.157   1.916  -0.196  0.00  0.00    +0.030 A 
ATOM     17  N   UNL     1      -0.357   0.849   0.015  0.00  0.00    -0.251 NA
ATOM     18  N   UNL     1      -2.688  -1.710   0.442  0.00  0.00    -0.273 N 
ATOM     19  N   UNL     1      -1.612  -2.497   0.606  0.00  0.00    -0.171 NA
ATOM     20  H   UNL     1      -3.083   2.823  -0.408  0.00  0.00    +0.065 HD
ATOM     21  H   UNL     1      -0.625   2.850  -0.359  0.00  0.00    +0.083 HD
ATOM     22  H   UNL     1      -3.613  -2.121   0.507  0.00  0.00    +0.189 HD
BRANCH  14  23
ATOM     23  N   UNL     1      -4.624   0.560  -0.020  0.00  0.00    -0.328 N 
ATOM     24  C   UNL     1      -5.185   0.724  -1.375  0.00  0.00    +0.015 C 
ATOM     25  C   UNL     1      -6.657   0.336  -1.355  0.00  0.00    -0.006 C 
ATOM     26  C   UNL     1      -7.403   1.145  -0.305  0.00  0.00    +0.104 C 
ATOM     27  C   UNL     1      -6.763   1.007   1.067  0.00  0.00    -0.006 C 
ATOM     28  C   UNL     1      -5.290   1.387   1.002  0.00  0.00    +0.015 C 
ATOM     29  F   UNL     1      -8.687   0.700  -0.238  0.00  0.00    -0.245 F 
ATOM     30  H   UNL     1      -5.076   1.760  -1.721  0.00  0.00    +0.046 HD
ATOM     31  H   UNL     1      -4.660   0.074  -2.087  0.00  0.00    +0.046 HD
ATOM     32  H   UNL     1      -6.766  -0.734  -1.134  0.00  0.00    +0.031 HD
ATOM     33  H   UNL     1      -7.109   0.495  -2.340  0.00  0.00    +0.031 HD
ATOM     34  H   UNL     1      -7.441   2.200  -0.600  0.00  0.00    +0.065 HD
ATOM     35  H   UNL     1      -7.291   1.639   1.791  0.00  0.00    +0.031 HD
ATOM     36  H   UNL     1      -6.875  -0.026   1.419  0.00  0.00    +0.031 HD
ATOM     37  H   UNL     1      -5.193   2.456   0.771  0.00  0.00    +0.046 HD
ATOM     38  H   UNL     1      -4.837   1.213   1.986  0.00  0.00    +0.046 HD
ENDBRANCH  14  23
ENDBRANCH   5  11
BRANCH   1  39
ATOM     39  C   UNL     1       4.371  -1.021  -0.323  0.00  0.00    -0.012 C 
ATOM     40  H   UNL     1       3.933  -0.166  -0.857  0.00  0.00    +0.035 HD
BRANCH  39  41
ATOM     41  C   UNL     1       5.238  -1.766  -1.345  0.00  0.00    -0.058 C 
ATOM     42  H   UNL     1       5.784  -2.600  -0.891  0.00  0.00    +0.024 HD
ATOM     43  H   UNL     1       5.976  -1.094  -1.796  0.00  0.00    +0.024 HD
ATOM     44  H   UNL     1       4.623  -2.173  -2.156  0.00  0.00    +0.024 HD
ENDBRANCH  39  41
BRANCH  39  45
ATOM     45  C   UNL     1       5.196  -0.494   0.868  0.00  0.00    +0.014 C 
ATOM     46  H   UNL     1       4.539  -0.252   1.713  0.00  0.00    +0.035 HD
ATOM     47  H   UNL     1       5.879  -1.272   1.234  0.00  0.00    +0.035 HD
BRANCH  45  48
ATOM     48  C   UNL     1       5.986   0.718   0.509  0.00  0.00    +0.134 A 
ATOM     49  N   UNL     1       7.223   0.743   0.057  0.00  0.00    -0.135 NA
ATOM     50  N   UNL     1       7.576   2.055  -0.156  0.00  0.00    -0.138 NA
ATOM     51  C   UNL     1       6.549   2.801   0.175  0.00  0.00    +0.120 A 
ATOM     52  N   UNL     1       5.529   2.007   0.598  0.00  0.00    -0.320 N 
ATOM     53  H   UNL     1       6.504   3.880   0.126  0.00  0.00    +0.105 HD
BRANCH  52  54
ATOM     54  C   UNL     1       4.237   2.450   1.047  0.00  0.00    +0.014 C 
ATOM     55  H   UNL     1       4.132   2.200   2.105  0.00  0.00    +0.046 HD
ATOM     56  H   UNL     1       4.154   3.532   0.914  0.00  0.00    +0.046 HD
ATOM     57  H   UNL     1       3.466   1.950   0.455  0.00  0.00    +0.046 HD
ENDBRANCH  52  54
ENDBRANCH  45  48
ENDBRANCH  39  45
ENDBRANCH   1  39
TORSDOF 7
