REMARK  Name = 
REMARK  8 active torsions:
REMARK  status: ('A' for Active; 'I' for Inactive)
REMARK    1  A    between atoms: C_1  and  C_2
REMARK    2  A    between atoms: N_5  and  S_6
REMARK    3  A    between atoms: S_6  and  C_9
REMARK    4  A    between atoms: C_12  and  N_13
REMARK    5  A    between atoms: C_14  and  C_16
REMARK    6  A    between atoms: C_16  and  C_17
REMARK    7  A    between atoms: C_17  and  N_18
REMARK    8  A    between atoms: C_32  and  C_33
REMARK                            x       y       z     vdW  Elec       q    Type
REMARK                         _______ _______ _______ _____ _____    ______ ____
ROOT
ATOM      1  C   UNL     1      -1.863  -0.615  -2.255  0.00  0.00    +0.109 A 
ATOM      2  C   UNL     1      -1.444  -1.226  -1.073  0.00  0.00    -0.033 A 
ATOM      3  C   UNL     1      -0.622  -0.526  -0.184  0.00  0.00    -0.039 A 
ATOM      4  C   UNL     1      -0.198   0.774  -0.480  0.00  0.00    +0.033 A 
ATOM      5  C   UNL     1      -0.601   1.362  -1.688  0.00  0.00    -0.039 A 
ATOM      6  C   UNL     1      -1.431   0.673  -2.578  0.00  0.00    -0.033 A 
ATOM      7  H   UNL     1      -1.756  -2.238  -0.822  0.00  0.00    +0.064 HD
ATOM      8  H   UNL     1      -0.328  -1.030   0.733  0.00  0.00    +0.064 HD
ATOM      9  H   UNL     1      -0.279   2.367  -1.953  0.00  0.00    +0.064 HD
ATOM     10  H   UNL     1      -1.731   1.147  -3.510  0.00  0.00    +0.064 HD
ENDROOT
BRANCH   4  11
ATOM     11  N   UNL     1       0.622   1.549   0.366  0.00  0.00    -0.285 N 
ATOM     12  C   UNL     1       1.133   1.191   1.601  0.00  0.00    +0.219 C 
ATOM     13  O   UNL     1       0.948   0.129   2.187  0.00  0.00    -0.275 OA
ATOM     14  H   UNL     1       0.896   2.456   0.003  0.00  0.00    +0.155 HD
BRANCH  12  15
ATOM     15  C   UNL     1       1.964   2.291   2.232  0.00  0.00    +0.041 C 
ATOM     16  H   UNL     1       1.353   2.754   3.016  0.00  0.00    +0.037 HD
ATOM     17  H   UNL     1       2.192   3.081   1.510  0.00  0.00    +0.037 HD
BRANCH  15  18
ATOM     18  C   UNL     1       3.242   1.729   2.844  0.00  0.00    +0.031 C 
ATOM     19  H   UNL     1       3.825   2.555   3.269  0.00  0.00    +0.047 HD
ATOM     20  H   UNL     1       3.002   1.049   3.670  0.00  0.00    +0.047 HD
BRANCH  18  21
ATOM     21  N   UNL     1       4.117   1.038   1.908  0.00  0.00    -0.234 N 
ATOM     22  C   UNL     1       4.454   1.484   0.658  0.00  0.00    +0.254 C 
ATOM     23  O   UNL     1       4.066   2.473   0.061  0.00  0.00    -0.270 OA
ATOM     24  C   UNL     1       5.426   0.536   0.120  0.00  0.00    +0.049 A 
ATOM     25  C   UNL     1       6.051   0.492  -1.111  0.00  0.00    -0.049 A 
ATOM     26  C   UNL     1       6.955  -0.553  -1.331  0.00  0.00    -0.061 A 
ATOM     27  C   UNL     1       7.211  -1.512  -0.329  0.00  0.00    -0.061 A 
ATOM     28  C   UNL     1       6.566  -1.444   0.910  0.00  0.00    -0.049 A 
ATOM     29  C   UNL     1       5.675  -0.406   1.101  0.00  0.00    +0.049 A 
ATOM     30  C   UNL     1       4.862  -0.057   2.264  0.00  0.00    +0.254 C 
ATOM     31  O   UNL     1       4.913  -0.644   3.328  0.00  0.00    -0.270 OA
ATOM     32  H   UNL     1       5.844   1.235  -1.873  0.00  0.00    +0.063 HD
ATOM     33  H   UNL     1       7.468  -0.629  -2.288  0.00  0.00    +0.062 HD
ATOM     34  H   UNL     1       7.918  -2.316  -0.524  0.00  0.00    +0.062 HD
ATOM     35  H   UNL     1       6.751  -2.176   1.692  0.00  0.00    +0.063 HD
ENDBRANCH  18  21
ENDBRANCH  15  18
ENDBRANCH  12  15
ENDBRANCH   4  11
BRANCH   1  36
ATOM     36  S   UNL     1      -2.929  -1.490  -3.380  0.00  0.00    +0.073 S 
ATOM     37  O   UNL     1      -2.836  -2.904  -3.084  0.00  0.00    -0.150 OA
ATOM     38  O   UNL     1      -2.655  -0.988  -4.711  0.00  0.00    -0.150 OA
BRANCH  36  42
ATOM     39  C   UNL     1      -5.443  -2.388   0.234  0.00  0.00    +0.044 A 
ATOM     40  C   UNL     1      -5.147  -2.368  -1.109  0.00  0.00    +0.001 A 
ATOM     41  C   UNL     1      -4.853  -1.129  -1.624  0.00  0.00    +0.141 A 
ATOM     42  N   UNL     1      -4.471  -0.939  -2.968  0.00  0.00    -0.199 N 
ATOM     43  N   UNL     1      -4.838   0.012  -0.929  0.00  0.00    -0.216 NA
ATOM     44  C   UNL     1      -5.115  -0.111   0.379  0.00  0.00    +0.128 A 
ATOM     45  N   UNL     1      -5.428  -1.270   0.990  0.00  0.00    -0.237 NA
ATOM     46  H   UNL     1      -5.142  -3.261  -1.717  0.00  0.00    +0.067 HD
ATOM     47  H   UNL     1      -4.591   0.032  -3.249  0.00  0.00    +0.175 HD
BRANCH  39  48
ATOM     48  C   UNL     1      -5.777  -3.680   0.916  0.00  0.00    -0.022 C 
ATOM     49  H   UNL     1      -4.920  -4.360   0.879  0.00  0.00    +0.029 HD
ATOM     50  H   UNL     1      -6.035  -3.510   1.967  0.00  0.00    +0.029 HD
ATOM     51  H   UNL     1      -6.637  -4.153   0.429  0.00  0.00    +0.029 HD
ENDBRANCH  39  48
BRANCH  44  52
ATOM     52  C   UNL     1      -5.099   1.129   1.216  0.00  0.00    -0.005 C 
ATOM     53  H   UNL     1      -6.113   1.526   1.311  0.00  0.00    +0.031 HD
ATOM     54  H   UNL     1      -4.464   1.897   0.760  0.00  0.00    +0.031 HD
ATOM     55  H   UNL     1      -4.707   0.910   2.214  0.00  0.00    +0.031 HD
ENDBRANCH  44  52
ENDBRANCH  36  42
ENDBRANCH   1  36
TORSDOF 8
