REMARK  Name = 
REMARK  6 active torsions:
REMARK  status: ('A' for Active; 'I' for Inactive)
REMARK    1  A    between atoms: C_1  and  C_2
REMARK    2  A    between atoms: C_2  and  C_3
REMARK    3  A    between atoms: C_2  and  N_4
REMARK    4  A    between atoms: N_4  and  C_5
REMARK    5  A    between atoms: N_4  and  C_6
REMARK    6  A    between atoms: C_6  and  C_7
REMARK                            x       y       z     vdW  Elec       q    Type
REMARK                         _______ _______ _______ _____ _____    ______ ____
ROOT
ATOM      1  C   UNL     1      -0.501  -0.567   0.585  0.00  0.00    +0.026 C 
ATOM      2  H   UNL     1      -0.693  -1.611   0.849  0.00  0.00    +0.048 HD
ATOM      3  H   UNL     1      -0.485  -0.009   1.529  0.00  0.00    +0.048 HD
ENDROOT
BRANCH   1   4
ATOM      4  C   UNL     1       0.844  -0.555  -0.083  0.00  0.00    -0.008 A 
ATOM      5  C   UNL     1       1.183  -1.196  -1.262  0.00  0.00    +0.007 A 
ATOM      6  N   UNL     1       2.499  -0.947  -1.529  0.00  0.00    -0.360 N 
ATOM      7  C   UNL     1       3.046  -0.164  -0.540  0.00  0.00    +0.047 A 
ATOM      8  C   UNL     1       4.350   0.327  -0.398  0.00  0.00    -0.038 A 
ATOM      9  C   UNL     1       4.629   1.111   0.724  0.00  0.00    -0.060 A 
ATOM     10  C   UNL     1       3.642   1.392   1.665  0.00  0.00    -0.061 A 
ATOM     11  C   UNL     1       2.343   0.894   1.507  0.00  0.00    -0.052 A 
ATOM     12  C   UNL     1       2.033   0.099   0.384  0.00  0.00    +0.004 A 
ATOM     13  H   UNL     1       0.582  -1.796  -1.932  0.00  0.00    +0.081 HD
ATOM     14  H   UNL     1       3.003  -1.286  -2.336  0.00  0.00    +0.165 HD
ATOM     15  H   UNL     1       5.120   0.111  -1.130  0.00  0.00    +0.064 HD
ATOM     16  H   UNL     1       5.632   1.508   0.864  0.00  0.00    +0.062 HD
ATOM     17  H   UNL     1       3.879   2.005   2.531  0.00  0.00    +0.062 HD
ATOM     18  H   UNL     1       1.583   1.123   2.248  0.00  0.00    +0.062 HD
ENDBRANCH   1   4
BRANCH   1  19
ATOM     19  N   UNL     1      -1.543  -0.031  -0.322  0.00  0.00    -0.299 NA
BRANCH  19  20
ATOM     20  C   UNL     1      -1.366   1.421  -0.464  0.00  0.00    -0.012 C 
ATOM     21  H   UNL     1      -2.007   1.821  -1.256  0.00  0.00    +0.039 HD
ATOM     22  H   UNL     1      -0.348   1.683  -0.772  0.00  0.00    +0.039 HD
ATOM     23  H   UNL     1      -1.584   1.952   0.470  0.00  0.00    +0.039 HD
ENDBRANCH  19  20
BRANCH  19  24
ATOM     24  C   UNL     1      -2.904  -0.397   0.148  0.00  0.00    +0.005 C 
ATOM     25  H   UNL     1      -2.994  -0.177   1.220  0.00  0.00    +0.046 HD
BRANCH  24  26
ATOM     26  C   UNL     1      -3.169  -1.898  -0.070  0.00  0.00    -0.050 C 
ATOM     27  H   UNL     1      -2.528  -2.531   0.549  0.00  0.00    +0.024 HD
ATOM     28  H   UNL     1      -3.015  -2.179  -1.118  0.00  0.00    +0.024 HD
ATOM     29  H   UNL     1      -4.201  -2.152   0.195  0.00  0.00    +0.024 HD
ENDBRANCH  24  26
BRANCH  24  30
ATOM     30  C   UNL     1      -4.033   0.367  -0.568  0.00  0.00    -0.050 C 
ATOM     31  H   UNL     1      -4.021   1.433  -0.320  0.00  0.00    +0.024 HD
ATOM     32  H   UNL     1      -3.961   0.261  -1.656  0.00  0.00    +0.024 HD
ATOM     33  H   UNL     1      -5.015  -0.012  -0.261  0.00  0.00    +0.024 HD
ENDBRANCH  24  30
ENDBRANCH  19  24
ENDBRANCH   1  19
TORSDOF 6
