REMARK  Name = 
REMARK  6 active torsions:
REMARK  status: ('A' for Active; 'I' for Inactive)
REMARK    1  A    between atoms: C_1  and  C_2
REMARK    2  A    between atoms: C_8  and  C_9
REMARK    3  A    between atoms: C_15  and  N_16
REMARK    4  A    between atoms: N_19  and  C_20
REMARK    5  A    between atoms: C_20  and  C_21
REMARK    6  A    between atoms: C_27  and  C_28
REMARK                            x       y       z     vdW  Elec       q    Type
REMARK                         _______ _______ _______ _____ _____    ______ ____
ROOT
ATOM      1  C   UNL     1      -2.651   0.134   0.609  0.00  0.00    -0.017 A 
ATOM      2  C   UNL     1      -3.820  -0.336   1.247  0.00  0.00    -0.054 A 
ATOM      3  C   UNL     1      -3.776  -1.385   2.172  0.00  0.00    -0.058 A 
ATOM      4  C   UNL     1      -2.555  -1.979   2.438  0.00  0.00    -0.042 A 
ATOM      5  C   UNL     1      -1.387  -1.534   1.813  0.00  0.00    -0.023 A 
ATOM      6  C   UNL     1      -1.424  -0.477   0.913  0.00  0.00    -0.049 A 
ATOM      7  C   UNL     1      -0.190  -2.312   2.297  0.00  0.00    +0.050 C 
ATOM      8  C   UNL     1      -0.879  -3.546   2.912  0.00  0.00    -0.026 C 
ATOM      9  C   UNL     1      -2.255  -3.079   3.407  0.00  0.00    -0.025 C 
ATOM     10  H   UNL     1      -4.777   0.136   1.031  0.00  0.00    +0.062 HD
ATOM     11  H   UNL     1      -4.683  -1.719   2.667  0.00  0.00    +0.062 HD
ATOM     12  H   UNL     1      -0.507  -0.119   0.453  0.00  0.00    +0.063 HD
ATOM     13  H   UNL     1       0.337  -1.737   3.067  0.00  0.00    +0.055 HD
ATOM     14  H   UNL     1      -1.021  -4.325   2.148  0.00  0.00    +0.029 HD
ATOM     15  H   UNL     1      -0.282  -3.997   3.712  0.00  0.00    +0.029 HD
ATOM     16  H   UNL     1      -2.991  -3.888   3.362  0.00  0.00    +0.031 HD
ATOM     17  H   UNL     1      -2.197  -2.681   4.425  0.00  0.00    +0.031 HD
ENDROOT
BRANCH   1  24
ATOM     18  C   UNL     1      -2.136   2.502  -0.136  0.00  0.00    -0.040 A 
ATOM     19  C   UNL     1      -2.203   3.488  -1.136  0.00  0.00    -0.023 A 
ATOM     20  C   UNL     1      -2.853   3.229  -2.336  0.00  0.00    +0.124 A 
ATOM     21  F   UNL     1      -2.912   4.182  -3.274  0.00  0.00    -0.205 F 
ATOM     22  C   UNL     1      -3.441   1.997  -2.576  0.00  0.00    -0.026 A 
ATOM     23  C   UNL     1      -3.371   1.004  -1.600  0.00  0.00    -0.051 A 
ATOM     24  C   UNL     1      -2.716   1.232  -0.371  0.00  0.00    -0.015 A 
ATOM     25  H   UNL     1      -1.751   4.465  -0.988  0.00  0.00    +0.065 HD
ATOM     26  H   UNL     1      -3.943   1.814  -3.520  0.00  0.00    +0.065 HD
ATOM     27  H   UNL     1      -3.823   0.034  -1.801  0.00  0.00    +0.062 HD
BRANCH  18  28
ATOM     28  C   UNL     1      -1.417   2.826   1.147  0.00  0.00    -0.039 C 
ATOM     29  H   UNL     1      -0.424   2.366   1.154  0.00  0.00    +0.028 HD
ATOM     30  H   UNL     1      -1.990   2.481   2.014  0.00  0.00    +0.028 HD
ATOM     31  H   UNL     1      -1.289   3.908   1.266  0.00  0.00    +0.028 HD
ENDBRANCH  18  28
ENDBRANCH   1  24
BRANCH   7  32
ATOM     32  N   UNL     1       0.701  -2.685   1.217  0.00  0.00    -0.293 N 
ATOM     33  C   UNL     1       1.711  -1.828   0.851  0.00  0.00    +0.300 C 
ATOM     34  O   UNL     1       2.057  -0.847   1.491  0.00  0.00    -0.253 OA
ATOM     35  N   UNL     1       2.243  -2.197  -0.361  0.00  0.00    -0.295 N 
ATOM     36  H   UNL     1       0.251  -3.128   0.431  0.00  0.00    +0.151 HD
ATOM     37  H   UNL     1       2.335  -3.196  -0.463  0.00  0.00    +0.151 HD
BRANCH  35  38
ATOM     38  C   UNL     1       3.296  -1.395  -0.957  0.00  0.00    +0.039 C 
ATOM     39  H   UNL     1       4.035  -1.192  -0.175  0.00  0.00    +0.051 HD
ATOM     40  H   UNL     1       3.755  -2.014  -1.735  0.00  0.00    +0.051 HD
BRANCH  38  41
ATOM     41  C   UNL     1       2.809  -0.104  -1.588  0.00  0.00    -0.018 A 
ATOM     42  C   UNL     1       1.466   0.047  -1.990  0.00  0.00    -0.054 A 
ATOM     43  C   UNL     1       0.999   1.260  -2.501  0.00  0.00    -0.026 A 
ATOM     44  C   UNL     1       1.868   2.333  -2.626  0.00  0.00    +0.124 A 
ATOM     45  F   UNL     1       1.414   3.496  -3.108  0.00  0.00    -0.205 F 
ATOM     46  C   UNL     1       3.205   2.211  -2.278  0.00  0.00    -0.014 A 
ATOM     47  C   UNL     1       3.682   0.989  -1.785  0.00  0.00    +0.044 A 
ATOM     48  H   UNL     1       0.759  -0.773  -1.882  0.00  0.00    +0.062 HD
ATOM     49  H   UNL     1      -0.043   1.377  -2.784  0.00  0.00    +0.065 HD
ATOM     50  H   UNL     1       3.870   3.062  -2.397  0.00  0.00    +0.065 HD
BRANCH  47  51
ATOM     51  C   UNL     1       5.135   0.923  -1.502  0.00  0.00    +0.242 C 
ATOM     52  N   UNL     1       5.812  -0.132  -2.047  0.00  0.00    -0.325 N 
ATOM     53  O   UNL     1       5.718   1.809  -0.893  0.00  0.00    -0.270 OA
ATOM     54  H   UNL     1       6.821  -0.061  -1.998  0.00  0.00    +0.145 HD
ATOM     55  H   UNL     1       5.428  -0.642  -2.830  0.00  0.00    +0.145 HD
ENDBRANCH  47  51
ENDBRANCH  38  41
ENDBRANCH  35  38
ENDBRANCH   7  32
TORSDOF 6
