REMARK  Name = 
REMARK  10 active torsions:
REMARK  status: ('A' for Active; 'I' for Inactive)
REMARK    1  A    between atoms: C_1  and  O_2
REMARK    2  A    between atoms: O_2  and  C_3
REMARK    3  A    between atoms: C_3  and  C_4
REMARK    4  A    between atoms: C_4  and  N_5
REMARK    5  A    between atoms: C_9  and  C_10
REMARK    6  A    between atoms: C_10  and  N_11
REMARK    7  A    between atoms: N_11  and  C_12
REMARK    8  A    between atoms: C_12  and  C_13
REMARK    9  A    between atoms: C_22  and  C_23
REMARK   10  A    between atoms: N_26  and  C_27
REMARK                            x       y       z     vdW  Elec       q    Type
REMARK                         _______ _______ _______ _____ _____    ______ ____
ROOT
ATOM      1  N   UNL     1      -2.552  -1.056   0.236  0.00  0.00    -0.292 N 
ATOM      2  C   UNL     1      -1.841  -2.164   0.684  0.00  0.00    +0.217 C 
ATOM      3  O   UNL     1      -2.292  -3.268   0.950  0.00  0.00    -0.276 OA
ATOM      4  C   UNL     1      -0.373  -1.818   0.708  0.00  0.00    +0.030 C 
ATOM      5  C   UNL     1      -0.365  -0.297   0.544  0.00  0.00    +0.003 C 
ATOM      6  C   UNL     1      -1.653  -0.021  -0.240  0.00  0.00    +0.059 C 
ATOM      7  H   UNL     1       0.114  -2.348  -0.115  0.00  0.00    +0.036 HD
ATOM      8  H   UNL     1       0.074  -2.119   1.659  0.00  0.00    +0.036 HD
ATOM      9  H   UNL     1      -0.445   0.133   1.554  0.00  0.00    +0.034 HD
ATOM     10  H   UNL     1      -1.510  -0.211  -1.311  0.00  0.00    +0.055 HD
ENDROOT
BRANCH   6  11
ATOM     11  C   UNL     1      -2.201   1.351  -0.038  0.00  0.00    +0.011 A 
ATOM     12  C   UNL     1      -2.516   2.012   1.174  0.00  0.00    +0.054 A 
ATOM     13  N   UNL     1      -2.965   3.255   0.984  0.00  0.00    -0.180 NA
ATOM     14  N   UNL     1      -2.939   3.401  -0.351  0.00  0.00    -0.274 N 
ATOM     15  C   UNL     1      -2.495   2.292  -1.008  0.00  0.00    +0.030 A 
ATOM     16  H   UNL     1      -2.442   1.630   2.186  0.00  0.00    +0.085 HD
ATOM     17  H   UNL     1      -2.411   2.262  -2.085  0.00  0.00    +0.083 HD
BRANCH  14  18
ATOM     18  C   UNL     1      -3.348   4.654  -0.936  0.00  0.00    +0.030 C 
ATOM     19  H   UNL     1      -4.367   4.872  -0.609  0.00  0.00    +0.047 HD
ATOM     20  H   UNL     1      -3.317   4.573  -2.026  0.00  0.00    +0.047 HD
ATOM     21  H   UNL     1      -2.659   5.432  -0.599  0.00  0.00    +0.047 HD
ENDBRANCH  14  18
ENDBRANCH   6  11
BRANCH   1  22
ATOM     22  C   UNL     1      -3.954  -1.154  -0.164  0.00  0.00    +0.039 C 
ATOM     23  H   UNL     1      -4.179  -2.210  -0.349  0.00  0.00    +0.049 HD
ATOM     24  H   UNL     1      -4.084  -0.632  -1.118  0.00  0.00    +0.049 HD
BRANCH  22  25
ATOM     25  C   UNL     1      -4.937  -0.605   0.881  0.00  0.00    +0.063 C 
ATOM     26  H   UNL     1      -5.970  -0.749   0.540  0.00  0.00    +0.058 HD
ATOM     27  H   UNL     1      -4.798   0.473   0.992  0.00  0.00    +0.058 HD
BRANCH  25  28
ATOM     28  O   UNL     1      -4.771  -1.173   2.182  0.00  0.00    -0.381 OA
BRANCH  28  29
ATOM     29  C   UNL     1      -5.320  -2.478   2.299  0.00  0.00    +0.037 C 
ATOM     30  H   UNL     1      -6.402  -2.450   2.132  0.00  0.00    +0.052 HD
ATOM     31  H   UNL     1      -4.855  -3.175   1.600  0.00  0.00    +0.052 HD
ATOM     32  H   UNL     1      -5.137  -2.835   3.316  0.00  0.00    +0.052 HD
ENDBRANCH  28  29
ENDBRANCH  25  28
ENDBRANCH  22  25
ENDBRANCH   1  22
BRANCH   5  33
ATOM     33  C   UNL     1       0.904   0.281  -0.093  0.00  0.00    +0.002 C 
ATOM     34  H   UNL     1       1.755   0.034   0.552  0.00  0.00    +0.043 HD
ATOM     35  H   UNL     1       0.810   1.373  -0.106  0.00  0.00    +0.043 HD
BRANCH  33  36
ATOM     36  N   UNL     1       1.143  -0.212  -1.455  0.00  0.00    -0.310 NA
ATOM     37  H   UNL     1       1.424  -1.192  -1.418  0.00  0.00    +0.122 HD
BRANCH  36  38
ATOM     38  C   UNL     1       2.225   0.533  -2.119  0.00  0.00    +0.040 C 
ATOM     39  H   UNL     1       2.196   0.296  -3.189  0.00  0.00    +0.049 HD
ATOM     40  H   UNL     1       2.072   1.615  -2.037  0.00  0.00    +0.049 HD
BRANCH  38  41
ATOM     41  C   UNL     1       3.559   0.139  -1.571  0.00  0.00    +0.074 A 
ATOM     42  C   UNL     1       4.363  -0.923  -1.936  0.00  0.00    +0.034 A 
ATOM     43  N   UNL     1       5.466  -0.854  -1.123  0.00  0.00    -0.306 N 
ATOM     44  C   UNL     1       6.583  -1.684  -1.070  0.00  0.00    +0.011 A 
ATOM     45  C   UNL     1       7.552  -1.419  -0.176  0.00  0.00    -0.045 A 
ATOM     46  C   UNL     1       7.401  -0.270   0.706  0.00  0.00    -0.057 A 
ATOM     47  C   UNL     1       6.316   0.528   0.646  0.00  0.00    -0.019 A 
ATOM     48  C   UNL     1       5.286   0.250  -0.297  0.00  0.00    +0.138 A 
ATOM     49  N   UNL     1       4.147   0.859  -0.551  0.00  0.00    -0.231 NA
ATOM     50  H   UNL     1       4.245  -1.698  -2.679  0.00  0.00    +0.083 HD
ATOM     51  H   UNL     1       6.622  -2.518  -1.759  0.00  0.00    +0.081 HD
ATOM     52  H   UNL     1       8.442  -2.033  -0.092  0.00  0.00    +0.063 HD
ATOM     53  H   UNL     1       8.195  -0.071   1.419  0.00  0.00    +0.062 HD
ATOM     54  H   UNL     1       6.201   1.385   1.300  0.00  0.00    +0.065 HD
ENDBRANCH  38  41
ENDBRANCH  36  38
ENDBRANCH  33  36
ENDBRANCH   5  33
TORSDOF 10
