REMARK  Name = 
REMARK  6 active torsions:
REMARK  status: ('A' for Active; 'I' for Inactive)
REMARK    1  A    between atoms: C_1  and  C_2
REMARK    2  A    between atoms: C_7  and  C_8
REMARK    3  A    between atoms: C_13  and  C_14
REMARK    4  A    between atoms: C_14  and  N_15
REMARK    5  A    between atoms: N_18  and  C_19
REMARK    6  A    between atoms: C_28  and  C_29
REMARK                            x       y       z     vdW  Elec       q    Type
REMARK                         _______ _______ _______ _____ _____    ______ ____
ROOT
ATOM      1  C   UNL     1       3.687   0.185  -0.484  0.00  0.00    +0.030 A 
ATOM      2  C   UNL     1       3.444   0.118  -1.864  0.00  0.00    +0.132 A 
ATOM      3  F   UNL     1       4.448  -0.157  -2.712  0.00  0.00    -0.205 F 
ATOM      4  C   UNL     1       2.182   0.341  -2.404  0.00  0.00    -0.025 A 
ATOM      5  C   UNL     1       1.113   0.639  -1.563  0.00  0.00    -0.054 A 
ATOM      6  C   UNL     1       1.292   0.703  -0.169  0.00  0.00    -0.017 A 
ATOM      7  C   UNL     1       2.589   0.490   0.357  0.00  0.00    +0.052 A 
ATOM      8  H   UNL     1       2.044   0.294  -3.480  0.00  0.00    +0.065 HD
ATOM      9  H   UNL     1       0.134   0.831  -2.000  0.00  0.00    +0.062 HD
ENDROOT
BRANCH   1  15
ATOM     10  C   UNL     1       5.684  -1.287   0.043  0.00  0.00    -0.043 A 
ATOM     11  C   UNL     1       6.997  -1.404   0.530  0.00  0.00    -0.058 A 
ATOM     12  C   UNL     1       7.684  -0.291   1.013  0.00  0.00    -0.061 A 
ATOM     13  C   UNL     1       7.073   0.957   1.006  0.00  0.00    -0.061 A 
ATOM     14  C   UNL     1       5.776   1.093   0.512  0.00  0.00    -0.054 A 
ATOM     15  C   UNL     1       5.059  -0.017   0.023  0.00  0.00    -0.011 A 
ATOM     16  H   UNL     1       7.498  -2.370   0.534  0.00  0.00    +0.062 HD
ATOM     17  H   UNL     1       8.699  -0.398   1.387  0.00  0.00    +0.062 HD
ATOM     18  H   UNL     1       7.606   1.830   1.378  0.00  0.00    +0.062 HD
ATOM     19  H   UNL     1       5.319   2.083   0.513  0.00  0.00    +0.062 HD
BRANCH  10  20
ATOM     20  C   UNL     1       5.004  -2.522  -0.487  0.00  0.00    -0.039 C 
ATOM     21  H   UNL     1       5.060  -2.544  -1.580  0.00  0.00    +0.028 HD
ATOM     22  H   UNL     1       3.956  -2.562  -0.174  0.00  0.00    +0.028 HD
ATOM     23  H   UNL     1       5.481  -3.430  -0.103  0.00  0.00    +0.028 HD
ENDBRANCH  10  20
ENDBRANCH   1  15
BRANCH   7  24
ATOM     24  C   UNL     1       2.795   0.645   1.816  0.00  0.00    +0.243 C 
ATOM     25  N   UNL     1       3.211  -0.461   2.498  0.00  0.00    -0.325 N 
ATOM     26  O   UNL     1       2.571   1.712   2.372  0.00  0.00    -0.270 OA
ATOM     27  H   UNL     1       3.485  -0.316   3.462  0.00  0.00    +0.145 HD
ATOM     28  H   UNL     1       3.601  -1.264   2.024  0.00  0.00    +0.145 HD
ENDBRANCH   7  24
BRANCH   6  29
ATOM     29  C   UNL     1       0.104   1.045   0.706  0.00  0.00    +0.039 C 
ATOM     30  H   UNL     1      -0.127   2.112   0.608  0.00  0.00    +0.051 HD
ATOM     31  H   UNL     1       0.281   0.834   1.764  0.00  0.00    +0.051 HD
BRANCH  29  32
ATOM     32  N   UNL     1      -1.061   0.259   0.339  0.00  0.00    -0.295 N 
ATOM     33  C   UNL     1      -2.290   0.606   0.841  0.00  0.00    +0.300 C 
ATOM     34  O   UNL     1      -2.505   1.602   1.514  0.00  0.00    -0.253 OA
ATOM     35  N   UNL     1      -3.237  -0.319   0.484  0.00  0.00    -0.293 N 
ATOM     36  H   UNL     1      -0.916  -0.739   0.293  0.00  0.00    +0.151 HD
ATOM     37  H   UNL     1      -3.060  -0.771  -0.400  0.00  0.00    +0.151 HD
BRANCH  35  38
ATOM     38  C   UNL     1      -4.633  -0.105   0.804  0.00  0.00    +0.050 C 
ATOM     39  C   UNL     1      -5.368  -1.448   0.988  0.00  0.00    -0.026 C 
ATOM     40  C   UNL     1      -6.821  -1.218   0.555  0.00  0.00    -0.025 C 
ATOM     41  C   UNL     1      -6.650  -0.151  -0.480  0.00  0.00    -0.042 A 
ATOM     42  C   UNL     1      -7.561   0.251  -1.442  0.00  0.00    -0.058 A 
ATOM     43  C   UNL     1      -7.215   1.313  -2.281  0.00  0.00    -0.061 A 
ATOM     44  C   UNL     1      -5.981   1.966  -2.135  0.00  0.00    -0.061 A 
ATOM     45  C   UNL     1      -5.074   1.562  -1.153  0.00  0.00    -0.057 A 
ATOM     46  C   UNL     1      -5.413   0.491  -0.338  0.00  0.00    -0.024 A 
ATOM     47  H   UNL     1      -4.745   0.524   1.695  0.00  0.00    +0.055 HD
ATOM     48  H   UNL     1      -5.296  -1.821   2.016  0.00  0.00    +0.029 HD
ATOM     49  H   UNL     1      -4.922  -2.219   0.342  0.00  0.00    +0.029 HD
ATOM     50  H   UNL     1      -7.264  -2.131   0.146  0.00  0.00    +0.031 HD
ATOM     51  H   UNL     1      -7.429  -0.844   1.385  0.00  0.00    +0.031 HD
ATOM     52  H   UNL     1      -8.525  -0.238  -1.541  0.00  0.00    +0.062 HD
ATOM     53  H   UNL     1      -7.913   1.649  -3.043  0.00  0.00    +0.062 HD
ATOM     54  H   UNL     1      -5.736   2.804  -2.783  0.00  0.00    +0.062 HD
ATOM     55  H   UNL     1      -4.132   2.087  -1.023  0.00  0.00    +0.062 HD
ENDBRANCH  35  38
ENDBRANCH  29  32
ENDBRANCH   6  29
TORSDOF 6
