REMARK  Name = 
REMARK  1 active torsions:
REMARK  status: ('A' for Active; 'I' for Inactive)
REMARK    1  A    between atoms: C_4  and  N_7
REMARK                            x       y       z     vdW  Elec       q    Type
REMARK                         _______ _______ _______ _____ _____    ______ ____
ROOT
ATOM      1  C   UNL     1      -2.794   1.127   0.259  0.00  0.00    -0.053 C 
ATOM      2  C   UNL     1      -2.165   1.219  -1.133  0.00  0.00    -0.051 C 
ATOM      3  C   UNL     1      -0.955   0.300  -1.322  0.00  0.00    -0.032 C 
ATOM      4  C   UNL     1      -0.200   0.080  -0.006  0.00  0.00    +0.037 C 
ATOM      5  C   UNL     1      -1.098  -0.570   1.063  0.00  0.00    -0.032 C 
ATOM      6  C   UNL     1      -2.583  -0.243   0.889  0.00  0.00    -0.051 C 
ATOM      7  H   UNL     1      -3.864   1.355   0.194  0.00  0.00    +0.027 HD
ATOM      8  H   UNL     1      -2.351   1.892   0.909  0.00  0.00    +0.027 HD
ATOM      9  H   UNL     1      -1.873   2.260  -1.317  0.00  0.00    +0.027 HD
ATOM     10  H   UNL     1      -2.914   0.974  -1.895  0.00  0.00    +0.027 HD
ATOM     11  H   UNL     1      -1.300  -0.664  -1.718  0.00  0.00    +0.029 HD
ATOM     12  H   UNL     1      -0.293   0.724  -2.088  0.00  0.00    +0.029 HD
ATOM     13  H   UNL     1       0.098   1.071   0.366  0.00  0.00    +0.053 HD
ATOM     14  H   UNL     1      -0.763  -0.225   2.051  0.00  0.00    +0.029 HD
ATOM     15  H   UNL     1      -0.985  -1.661   1.079  0.00  0.00    +0.029 HD
ATOM     16  H   UNL     1      -3.087  -0.295   1.861  0.00  0.00    +0.027 HD
ATOM     17  H   UNL     1      -3.051  -1.006   0.254  0.00  0.00    +0.027 HD
ENDROOT
BRANCH   4  18
ATOM     18  N   UNL     1       1.040  -0.655  -0.194  0.00  0.00    -0.312 N 
ATOM     19  C   UNL     1       1.190  -1.903  -0.753  0.00  0.00    +0.100 A 
ATOM     20  N   UNL     1       2.455  -2.287  -0.778  0.00  0.00    -0.215 NA
ATOM     21  C   UNL     1       3.132  -1.254  -0.217  0.00  0.00    +0.197 A 
ATOM     22  C   UNL     1       2.288  -0.257   0.142  0.00  0.00    +0.159 A 
ATOM     23  N   UNL     1       3.043   0.723   0.689  0.00  0.00    -0.329 N 
ATOM     24  C   UNL     1       4.340   0.263   0.632  0.00  0.00    +0.097 A 
ATOM     25  N   UNL     1       4.417  -0.937   0.086  0.00  0.00    -0.215 NA
ATOM     26  H   UNL     1       0.355  -2.485  -1.121  0.00  0.00    +0.103 HD
ATOM     27  H   UNL     1       2.742   1.612   1.064  0.00  0.00    +0.168 HD
ATOM     28  H   UNL     1       5.174   0.843   1.003  0.00  0.00    +0.103 HD
ENDBRANCH   4  18
TORSDOF 1
