REMARK  Name = 
REMARK  8 active torsions:
REMARK  status: ('A' for Active; 'I' for Inactive)
REMARK    1  A    between atoms: C_1  and  C_2
REMARK    2  A    between atoms: C_2  and  C_3
REMARK    3  A    between atoms: C_2  and  S_21
REMARK    4  A    between atoms: C_7  and  N_9
REMARK    5  A    between atoms: C_10  and  C_11
REMARK    6  A    between atoms: C_14  and  C_15
REMARK    7  A    between atoms: S_21  and  C_22
REMARK    8  A    between atoms: N_26  and  C_27
REMARK                            x       y       z     vdW  Elec       q    Type
REMARK                         _______ _______ _______ _____ _____    ______ ____
ROOT
ATOM      1  C   UNL     1       0.782  -0.231  -1.894  0.00  0.00    -0.030 A 
ATOM      2  C   UNL     1       0.771  -1.174  -2.925  0.00  0.00    -0.039 A 
ATOM      3  C   UNL     1      -0.334  -1.995  -3.061  0.00  0.00    +0.030 A 
ATOM      4  N   UNL     1      -1.412  -1.948  -2.250  0.00  0.00    -0.240 NA
ATOM      5  C   UNL     1      -1.396  -1.044  -1.248  0.00  0.00    +0.125 A 
ATOM      6  C   UNL     1      -0.330  -0.181  -1.036  0.00  0.00    -0.017 A 
ATOM      7  H   UNL     1       1.605  -1.282  -3.610  0.00  0.00    +0.064 HD
ATOM      8  H   UNL     1      -0.381  -2.740  -3.850  0.00  0.00    +0.083 HD
ATOM      9  H   UNL     1      -0.334   0.533  -0.219  0.00  0.00    +0.065 HD
ENDROOT
BRANCH   5  10
ATOM     10  N   UNL     1      -2.551  -1.092  -0.469  0.00  0.00    -0.265 N 
ATOM     11  C   UNL     1      -2.891  -0.309   0.612  0.00  0.00    +0.268 C 
ATOM     12  O   UNL     1      -2.203   0.607   1.052  0.00  0.00    -0.268 OA
ATOM     13  H   UNL     1      -3.197  -1.780  -0.824  0.00  0.00    +0.157 HD
BRANCH  11  14
ATOM     14  C   UNL     1      -4.194  -0.642   1.231  0.00  0.00    +0.133 A 
ATOM     15  C   UNL     1      -4.919  -1.809   1.055  0.00  0.00    +0.008 A 
ATOM     16  S   UNL     1      -6.367  -1.776   1.971  0.00  0.00    -0.071 S 
ATOM     17  C   UNL     1      -5.952  -0.215   2.572  0.00  0.00    +0.182 A 
ATOM     18  N   UNL     1      -4.804   0.256   2.113  0.00  0.00    -0.231 NA
ATOM     19  H   UNL     1      -4.684  -2.681   0.461  0.00  0.00    +0.072 HD
BRANCH  17  20
ATOM     20  C   UNL     1      -6.883   0.471   3.534  0.00  0.00    +0.441 C 
ATOM     21  F   UNL     1      -7.086  -0.263   4.662  0.00  0.00    -0.164 F 
ATOM     22  F   UNL     1      -6.428   1.685   3.942  0.00  0.00    -0.164 F 
ATOM     23  F   UNL     1      -8.113   0.685   2.988  0.00  0.00    -0.164 F 
ENDBRANCH  17  20
ENDBRANCH  11  14
ENDBRANCH   5  10
BRANCH   1  24
ATOM     24  C   UNL     1       1.958   0.707  -1.657  0.00  0.00    +0.035 C 
ATOM     25  H   UNL     1       1.629   1.493  -0.966  0.00  0.00    +0.046 HD
BRANCH  24  26
ATOM     26  C   UNL     1       2.430   1.385  -2.947  0.00  0.00    -0.049 C 
ATOM     27  H   UNL     1       1.593   1.891  -3.443  0.00  0.00    +0.024 HD
ATOM     28  H   UNL     1       3.192   2.146  -2.747  0.00  0.00    +0.024 HD
ATOM     29  H   UNL     1       2.855   0.676  -3.665  0.00  0.00    +0.024 HD
ENDBRANCH  24  26
BRANCH  24  30
ATOM     30  S   UNL     1       3.332  -0.224  -0.871  0.00  0.00    -0.078 S 
BRANCH  30  31
ATOM     31  C   UNL     1       4.209   1.046  -0.096  0.00  0.00    +0.192 A 
ATOM     32  N   UNL     1       4.000   2.337  -0.208  0.00  0.00    -0.123 NA
ATOM     33  N   UNL     1       4.931   2.982   0.575  0.00  0.00    -0.137 NA
ATOM     34  C   UNL     1       5.677   2.062   1.143  0.00  0.00    +0.120 A 
ATOM     35  N   UNL     1       5.259   0.827   0.748  0.00  0.00    -0.312 N 
ATOM     36  H   UNL     1       6.500   2.240   1.821  0.00  0.00    +0.105 HD
BRANCH  35  37
ATOM     37  C   UNL     1       5.827  -0.428   1.160  0.00  0.00    +0.015 C 
ATOM     38  H   UNL     1       6.659  -0.245   1.845  0.00  0.00    +0.046 HD
ATOM     39  H   UNL     1       6.193  -0.956   0.276  0.00  0.00    +0.046 HD
ATOM     40  H   UNL     1       5.057  -1.013   1.670  0.00  0.00    +0.046 HD
ENDBRANCH  35  37
ENDBRANCH  30  31
ENDBRANCH  24  30
ENDBRANCH   1  24
TORSDOF 8
