REMARK  Name = 
REMARK  4 active torsions:
REMARK  status: ('A' for Active; 'I' for Inactive)
REMARK    1  A    between atoms: C_1  and  N_2
REMARK    2  A    between atoms: N_5  and  C_6
REMARK    3  A    between atoms: C_9  and  O_12
REMARK    4  A    between atoms: O_12  and  C_13
REMARK                            x       y       z     vdW  Elec       q    Type
REMARK                         _______ _______ _______ _____ _____    ______ ____
ROOT
ATOM      1  N   UNL     1      -3.591   0.461   0.691  0.00  0.00    -0.302 NA
ATOM      2  C   UNL     1      -2.828  -0.792   0.879  0.00  0.00    +0.014 C 
ATOM      3  C   UNL     1      -1.326  -0.581   1.179  0.00  0.00    +0.025 C 
ATOM      4  N   UNL     1      -0.672   0.134   0.069  0.00  0.00    -0.327 N 
ATOM      5  C   UNL     1      -1.528   1.039  -0.718  0.00  0.00    +0.025 C 
ATOM      6  C   UNL     1      -2.744   1.523   0.108  0.00  0.00    +0.014 C 
ATOM      7  H   UNL     1      -3.282  -1.357   1.702  0.00  0.00    +0.044 HD
ATOM      8  H   UNL     1      -2.899  -1.420  -0.021  0.00  0.00    +0.044 HD
ATOM      9  H   UNL     1      -1.202  -0.014   2.110  0.00  0.00    +0.048 HD
ATOM     10  H   UNL     1      -0.879  -1.572   1.319  0.00  0.00    +0.048 HD
ATOM     11  H   UNL     1      -1.872   0.522  -1.621  0.00  0.00    +0.048 HD
ATOM     12  H   UNL     1      -0.970   1.932  -1.026  0.00  0.00    +0.048 HD
ATOM     13  H   UNL     1      -3.340   2.221  -0.492  0.00  0.00    +0.044 HD
ATOM     14  H   UNL     1      -2.361   2.115   0.950  0.00  0.00    +0.044 HD
ENDROOT
BRANCH   4  15
ATOM     15  C   UNL     1       0.683   0.014  -0.183  0.00  0.00    +0.031 A 
ATOM     16  C   UNL     1       1.240   0.366  -1.421  0.00  0.00    -0.023 A 
ATOM     17  C   UNL     1       2.615   0.242  -1.678  0.00  0.00    +0.061 A 
ATOM     18  C   UNL     1       3.490  -0.240  -0.700  0.00  0.00    +0.134 A 
ATOM     19  C   UNL     1       2.956  -0.597   0.535  0.00  0.00    -0.017 A 
ATOM     20  C   UNL     1       1.579  -0.471   0.781  0.00  0.00    -0.037 A 
ATOM     21 BR   UNL     1       3.237   0.750  -3.404  0.00  0.00    -0.046 Br
ATOM     22  H   UNL     1       0.599   0.723  -2.221  0.00  0.00    +0.065 HD
ATOM     23  H   UNL     1       3.576  -0.974   1.342  0.00  0.00    +0.065 HD
ATOM     24  H   UNL     1       1.224  -0.744   1.772  0.00  0.00    +0.064 HD
BRANCH  18  25
ATOM     25  O   UNL     1       4.815  -0.328  -1.032  0.00  0.00    -0.494 OA
BRANCH  25  26
ATOM     26  C   UNL     1       5.711  -0.816  -0.043  0.00  0.00    +0.079 C 
ATOM     27  H   UNL     1       6.717  -0.818  -0.475  0.00  0.00    +0.066 HD
ATOM     28  H   UNL     1       5.468  -1.846   0.237  0.00  0.00    +0.066 HD
ATOM     29  H   UNL     1       5.728  -0.160   0.834  0.00  0.00    +0.066 HD
ENDBRANCH  25  26
ENDBRANCH  18  25
ENDBRANCH   4  15
BRANCH   1  30
ATOM     30  C   UNL     1      -4.787   0.217  -0.111  0.00  0.00    -0.013 C 
ATOM     31  H   UNL     1      -5.407  -0.560   0.349  0.00  0.00    +0.039 HD
ATOM     32  H   UNL     1      -4.544  -0.093  -1.134  0.00  0.00    +0.039 HD
ATOM     33  H   UNL     1      -5.404   1.121  -0.163  0.00  0.00    +0.039 HD
ENDBRANCH   1  30
TORSDOF 4
