REMARK  Name = 
REMARK  9 active torsions:
REMARK  status: ('A' for Active; 'I' for Inactive)
REMARK    1  A    between atoms: C_1  and  C_2
REMARK    2  A    between atoms: C_2  and  C_3
REMARK    3  A    between atoms: C_2  and  C_10
REMARK    4  A    between atoms: C_3  and  C_4
REMARK    5  A    between atoms: N_8  and  C_9
REMARK    6  A    between atoms: C_14  and  C_16
REMARK    7  A    between atoms: C_22  and  C_31
REMARK    8  A    between atoms: C_24  and  N_25
REMARK    9  A    between atoms: C_28  and  O_30
REMARK                            x       y       z     vdW  Elec       q    Type
REMARK                         _______ _______ _______ _____ _____    ______ ____
ROOT
ATOM      1  C   UNL     1       3.016  -0.801  -1.739  0.00  0.00    -0.044 A 
ATOM      2  C   UNL     1       3.460  -1.965  -2.378  0.00  0.00    -0.058 A 
ATOM      3  C   UNL     1       2.591  -3.036  -2.578  0.00  0.00    -0.061 A 
ATOM      4  C   UNL     1       1.268  -2.955  -2.141  0.00  0.00    -0.052 A 
ATOM      5  C   UNL     1       0.787  -1.800  -1.504  0.00  0.00    +0.004 A 
ATOM      6  C   UNL     1       1.676  -0.731  -1.312  0.00  0.00    -0.049 A 
ATOM      7  H   UNL     1       4.487  -2.047  -2.727  0.00  0.00    +0.062 HD
ATOM      8  H   UNL     1       2.941  -3.937  -3.074  0.00  0.00    +0.062 HD
ATOM      9  H   UNL     1       0.606  -3.803  -2.305  0.00  0.00    +0.062 HD
ATOM     10  H   UNL     1       1.335   0.174  -0.816  0.00  0.00    +0.063 HD
ENDROOT
BRANCH   5  11
ATOM     11  C   UNL     1      -0.610  -1.735  -1.048  0.00  0.00    +0.118 A 
ATOM     12  N   UNL     1      -1.356  -2.856  -0.943  0.00  0.00    -0.171 NA
ATOM     13  N   UNL     1      -2.550  -2.420  -0.507  0.00  0.00    -0.273 N 
ATOM     14  C   UNL     1      -2.627  -1.074  -0.316  0.00  0.00    +0.106 A 
ATOM     15  C   UNL     1      -1.380  -0.588  -0.661  0.00  0.00    +0.118 A 
ATOM     16  N   UNL     1      -1.074   0.733  -0.602  0.00  0.00    -0.240 NA
ATOM     17  C   UNL     1      -2.077   1.554  -0.191  0.00  0.00    +0.128 A 
ATOM     18  C   UNL     1      -3.353   1.097   0.170  0.00  0.00    -0.010 A 
ATOM     19  C   UNL     1      -3.672  -0.263   0.117  0.00  0.00    +0.059 A 
ATOM     20  H   UNL     1      -3.293  -3.091  -0.356  0.00  0.00    +0.189 HD
ATOM     21  H   UNL     1      -4.105   1.812   0.499  0.00  0.00    +0.066 HD
BRANCH  19  22
ATOM     22  N   UNL     1      -4.904  -0.808   0.458  0.00  0.00    -0.326 N 
ATOM     23  C   UNL     1      -6.050  -0.309  -0.337  0.00  0.00    +0.015 C 
ATOM     24  C   UNL     1      -7.011   0.308   0.669  0.00  0.00    -0.010 C 
ATOM     25  C   UNL     1      -6.764  -0.511   1.923  0.00  0.00    +0.072 C 
ATOM     26  C   UNL     1      -5.240  -0.678   1.893  0.00  0.00    +0.038 C 
ATOM     27  H   UNL     1      -5.777   0.406  -1.121  0.00  0.00    +0.046 HD
ATOM     28  H   UNL     1      -6.521  -1.171  -0.825  0.00  0.00    +0.046 HD
ATOM     29  H   UNL     1      -8.053   0.264   0.336  0.00  0.00    +0.031 HD
ATOM     30  H   UNL     1      -6.769   1.365   0.842  0.00  0.00    +0.031 HD
ATOM     31  H   UNL     1      -7.270  -1.482   1.856  0.00  0.00    +0.061 HD
ATOM     32  H   UNL     1      -4.935  -1.577   2.442  0.00  0.00    +0.049 HD
ATOM     33  H   UNL     1      -4.757   0.182   2.375  0.00  0.00    +0.049 HD
BRANCH  25  34
ATOM     34  O   UNL     1      -7.227   0.188   3.066  0.00  0.00    -0.390 OA
ATOM     35  H   UNL     1      -7.092  -0.388   3.840  0.00  0.00    +0.210 HD
ENDBRANCH  25  34
ENDBRANCH  19  22
BRANCH  17  36
ATOM     36  C   UNL     1      -1.777   3.046  -0.084  0.00  0.00    +0.365 C 
ATOM     37  F   UNL     1      -2.907   3.816  -0.105  0.00  0.00    -0.181 F 
ATOM     38  F   UNL     1      -1.005   3.516  -1.106  0.00  0.00    -0.181 F 
ATOM     39 CL   UNL     1      -0.932   3.369   1.458  0.00  0.00    -0.041 Cl
ENDBRANCH  17  36
ENDBRANCH   5  11
BRANCH   1  40
ATOM     40  C   UNL     1       3.986   0.351  -1.504  0.00  0.00    -0.012 C 
ATOM     41  H   UNL     1       4.971   0.047  -1.883  0.00  0.00    +0.035 HD
BRANCH  40  42
ATOM     42  C   UNL     1       3.549   1.585  -2.302  0.00  0.00    -0.058 C 
ATOM     43  H   UNL     1       2.621   2.014  -1.906  0.00  0.00    +0.024 HD
ATOM     44  H   UNL     1       3.373   1.335  -3.355  0.00  0.00    +0.024 HD
ATOM     45  H   UNL     1       4.314   2.367  -2.274  0.00  0.00    +0.024 HD
ENDBRANCH  40  42
BRANCH  40  46
ATOM     46  C   UNL     1       4.114   0.646   0.007  0.00  0.00    +0.014 C 
ATOM     47  H   UNL     1       3.283   1.276   0.349  0.00  0.00    +0.035 HD
ATOM     48  H   UNL     1       4.033  -0.294   0.566  0.00  0.00    +0.035 HD
BRANCH  46  49
ATOM     49  C   UNL     1       5.399   1.320   0.359  0.00  0.00    +0.134 A 
ATOM     50  N   UNL     1       5.873   2.435  -0.162  0.00  0.00    -0.135 NA
ATOM     51  N   UNL     1       7.074   2.718   0.441  0.00  0.00    -0.138 NA
ATOM     52  C   UNL     1       7.307   1.777   1.324  0.00  0.00    +0.120 A 
ATOM     53  N   UNL     1       6.283   0.882   1.313  0.00  0.00    -0.320 N 
ATOM     54  H   UNL     1       8.169   1.710   1.971  0.00  0.00    +0.105 HD
BRANCH  53  55
ATOM     55  C   UNL     1       6.166  -0.277   2.155  0.00  0.00    +0.014 C 
ATOM     56  H   UNL     1       5.212  -0.231   2.683  0.00  0.00    +0.046 HD
ATOM     57  H   UNL     1       6.983  -0.288   2.880  0.00  0.00    +0.046 HD
ATOM     58  H   UNL     1       6.214  -1.170   1.526  0.00  0.00    +0.046 HD
ENDBRANCH  53  55
ENDBRANCH  46  49
ENDBRANCH  40  46
ENDBRANCH   1  40
TORSDOF 9
