REMARK  Name = 
REMARK  8 active torsions:
REMARK  status: ('A' for Active; 'I' for Inactive)
REMARK    1  A    between atoms: C_1  and  C_2
REMARK    2  A    between atoms: C_2  and  C_3
REMARK    3  A    between atoms: C_2  and  C_10
REMARK    4  A    between atoms: C_3  and  C_4
REMARK    5  A    between atoms: N_8  and  C_9
REMARK    6  A    between atoms: C_12  and  N_16
REMARK    7  A    between atoms: C_17  and  C_19
REMARK    8  A    between atoms: C_23  and  C_25
REMARK                            x       y       z     vdW  Elec       q    Type
REMARK                         _______ _______ _______ _____ _____    ______ ____
ROOT
ATOM      1  N   UNL     1      -0.572  -0.250   0.216  0.00  0.00    -0.280 N 
ATOM      2  C   UNL     1       0.761  -0.611   0.263  0.00  0.00    +0.267 C 
ATOM      3  O   UNL     1       1.337  -1.232   1.148  0.00  0.00    -0.268 OA
ATOM      4  H   UNL     1      -0.832   0.264  -0.624  0.00  0.00    +0.155 HD
ENDROOT
BRANCH   1   7
ATOM      5  C   UNL     1      -3.936  -0.216   1.767  0.00  0.00    -0.042 A 
ATOM      6  C   UNL     1      -2.869  -0.040   0.867  0.00  0.00    -0.037 A 
ATOM      7  C   UNL     1      -1.575  -0.487   1.172  0.00  0.00    +0.034 A 
ATOM      8  C   UNL     1      -1.350  -1.130   2.389  0.00  0.00    -0.040 A 
ATOM      9  C   UNL     1      -2.400  -1.318   3.291  0.00  0.00    -0.060 A 
ATOM     10  C   UNL     1      -3.683  -0.866   2.983  0.00  0.00    -0.058 A 
ATOM     11  H   UNL     1      -3.050   0.451  -0.086  0.00  0.00    +0.064 HD
ATOM     12  H   UNL     1      -0.365  -1.492   2.670  0.00  0.00    +0.064 HD
ATOM     13  H   UNL     1      -2.212  -1.819   4.238  0.00  0.00    +0.062 HD
ATOM     14  H   UNL     1      -4.484  -1.027   3.701  0.00  0.00    +0.062 HD
BRANCH   5  15
ATOM     15  C   UNL     1      -5.356   0.234   1.442  0.00  0.00    -0.012 C 
ATOM     16  H   UNL     1      -5.933   0.218   2.378  0.00  0.00    +0.035 HD
BRANCH  15  17
ATOM     17  C   UNL     1      -5.391   1.683   0.931  0.00  0.00    -0.058 C 
ATOM     18  H   UNL     1      -4.862   2.353   1.621  0.00  0.00    +0.024 HD
ATOM     19  H   UNL     1      -4.925   1.783  -0.055  0.00  0.00    +0.024 HD
ATOM     20  H   UNL     1      -6.418   2.049   0.843  0.00  0.00    +0.024 HD
ENDBRANCH  15  17
BRANCH  15  21
ATOM     21  C   UNL     1      -5.993  -0.757   0.444  0.00  0.00    +0.014 C 
ATOM     22  H   UNL     1      -5.542  -0.629  -0.549  0.00  0.00    +0.035 HD
ATOM     23  H   UNL     1      -5.770  -1.785   0.760  0.00  0.00    +0.035 HD
BRANCH  21  24
ATOM     24  C   UNL     1      -7.477  -0.634   0.332  0.00  0.00    +0.134 A 
ATOM     25  N   UNL     1      -8.276   0.148   1.030  0.00  0.00    -0.135 NA
ATOM     26  N   UNL     1      -9.567  -0.063   0.606  0.00  0.00    -0.138 NA
ATOM     27  C   UNL     1      -9.531  -0.978  -0.333  0.00  0.00    +0.120 A 
ATOM     28  N   UNL     1      -8.245  -1.367  -0.536  0.00  0.00    -0.320 N 
ATOM     29  H   UNL     1     -10.382  -1.373  -0.871  0.00  0.00    +0.105 HD
BRANCH  28  30
ATOM     30  C   UNL     1      -7.796  -2.361  -1.474  0.00  0.00    +0.014 C 
ATOM     31  H   UNL     1      -7.163  -1.873  -2.220  0.00  0.00    +0.046 HD
ATOM     32  H   UNL     1      -7.234  -3.127  -0.933  0.00  0.00    +0.046 HD
ATOM     33  H   UNL     1      -8.660  -2.818  -1.965  0.00  0.00    +0.046 HD
ENDBRANCH  28  30
ENDBRANCH  21  24
ENDBRANCH  15  21
ENDBRANCH   5  15
ENDBRANCH   1   7
BRANCH   2  34
ATOM     34  C   UNL     1       1.532  -0.149  -0.938  0.00  0.00    +0.126 A 
ATOM     35  N   UNL     1       0.847   0.624  -1.831  0.00  0.00    -0.250 NA
ATOM     36  C   UNL     1       1.531   1.050  -2.916  0.00  0.00    +0.029 A 
ATOM     37  C   UNL     1       2.862   0.757  -3.144  0.00  0.00    -0.031 A 
ATOM     38  C   UNL     1       3.533  -0.015  -2.197  0.00  0.00    +0.040 A 
ATOM     39  C   UNL     1       2.862  -0.505  -1.083  0.00  0.00    -0.019 A 
ATOM     40  H   UNL     1       0.963   1.651  -3.621  0.00  0.00    +0.083 HD
ATOM     41  H   UNL     1       3.366   1.110  -4.039  0.00  0.00    +0.064 HD
ATOM     42  H   UNL     1       3.348  -1.154  -0.363  0.00  0.00    +0.065 HD
BRANCH  38  43
ATOM     43  C   UNL     1       4.942  -0.372  -2.452  0.00  0.00    +0.247 C 
ATOM     44  O   UNL     1       5.203  -0.920  -3.520  0.00  0.00    -0.270 OA
ATOM     45  N   UNL     1       5.899  -0.048  -1.506  0.00  0.00    -0.297 N 
ATOM     46  C   UNL     1       7.296  -0.373  -1.761  0.00  0.00    +0.016 C 
ATOM     47  C   UNL     1       8.079   0.573  -0.868  0.00  0.00    -0.024 C 
ATOM     48  C   UNL     1       7.120   0.765   0.293  0.00  0.00    +0.051 C 
ATOM     49  C   UNL     1       5.729   0.807  -0.332  0.00  0.00    +0.026 C 
ATOM     50  C   UNL     1       7.422   1.865   1.319  0.00  0.00    +0.060 C 
ATOM     51  O   UNL     1       7.074   0.979   2.413  0.00  0.00    -0.360 OA
ATOM     52  C   UNL     1       7.191  -0.173   1.529  0.00  0.00    +0.141 C 
ATOM     53 CL   UNL     1       8.672  -1.113   1.885  0.00  0.00    -0.090 Cl
ATOM     54  H   UNL     1       7.554  -0.261  -2.819  0.00  0.00    +0.046 HD
ATOM     55  H   UNL     1       7.447  -1.417  -1.466  0.00  0.00    +0.046 HD
ATOM     56  H   UNL     1       8.229   1.528  -1.389  0.00  0.00    +0.029 HD
ATOM     57  H   UNL     1       9.063   0.184  -0.600  0.00  0.00    +0.029 HD
ATOM     58  H   UNL     1       5.470   1.810  -0.689  0.00  0.00    +0.047 HD
ATOM     59  H   UNL     1       4.938   0.442   0.325  0.00  0.00    +0.047 HD
ATOM     60  H   UNL     1       6.773   2.746   1.284  0.00  0.00    +0.057 HD
ATOM     61  H   UNL     1       8.467   2.184   1.391  0.00  0.00    +0.057 HD
ATOM     62  H   UNL     1       6.336  -0.847   1.653  0.00  0.00    +0.077 HD
ENDBRANCH  38  43
ENDBRANCH   2  34
TORSDOF 8
