REMARK  Name = 
REMARK  3 active torsions:
REMARK  status: ('A' for Active; 'I' for Inactive)
REMARK    1  A    between atoms: C_1  and  C_2
REMARK    2  A    between atoms: N_5  and  C_6
REMARK    3  A    between atoms: C_6  and  C_8
REMARK                            x       y       z     vdW  Elec       q    Type
REMARK                         _______ _______ _______ _____ _____    ______ ____
ROOT
ATOM      1  C   UNL     1      -1.535  -1.569   0.225  0.00  0.00    +0.041 A 
ATOM      2  C   UNL     1      -0.950  -2.647  -0.455  0.00  0.00    -0.049 A 
ATOM      3  C   UNL     1       0.427  -2.666  -0.685  0.00  0.00    -0.047 A 
ATOM      4  C   UNL     1       1.217  -1.603  -0.233  0.00  0.00    +0.065 A 
ATOM      5  C   UNL     1       2.673  -1.587  -0.452  0.00  0.00    +0.262 A 
ATOM      6  O   UNL     1       3.193  -2.507  -1.079  0.00  0.00    -0.267 OA
ATOM      7  N   UNL     1       3.368  -0.500   0.077  0.00  0.00    -0.296 N 
ATOM      8  C   UNL     1       2.700   0.532   0.703  0.00  0.00    +0.113 A 
ATOM      9  N   UNL     1       1.419   0.553   0.893  0.00  0.00    -0.233 NA
ATOM     10  C   UNL     1       0.653  -0.525   0.442  0.00  0.00    +0.079 A 
ATOM     11  C   UNL     1      -0.727  -0.512   0.669  0.00  0.00    -0.023 A 
ATOM     12  C   UNL     1       3.496   1.734   1.175  0.00  0.00    +0.006 C 
ATOM     13  C   UNL     1       4.054   2.529  -0.001  0.00  0.00    -0.046 C 
ATOM     14  C   UNL     1       5.368   1.970  -0.542  0.00  0.00    -0.051 C 
ATOM     15  C   UNL     1       5.270   0.559  -1.118  0.00  0.00    -0.035 C 
ATOM     16  C   UNL     1       4.820  -0.483  -0.096  0.00  0.00    +0.028 C 
ATOM     17  H   UNL     1      -1.563  -3.476  -0.806  0.00  0.00    +0.063 HD
ATOM     18  H   UNL     1       0.879  -3.504  -1.212  0.00  0.00    +0.063 HD
ATOM     19  H   UNL     1      -1.160   0.335   1.197  0.00  0.00    +0.065 HD
ATOM     20  H   UNL     1       4.283   1.421   1.869  0.00  0.00    +0.034 HD
ATOM     21  H   UNL     1       2.818   2.383   1.745  0.00  0.00    +0.034 HD
ATOM     22  H   UNL     1       4.241   3.557   0.333  0.00  0.00    +0.027 HD
ATOM     23  H   UNL     1       3.317   2.587  -0.811  0.00  0.00    +0.027 HD
ATOM     24  H   UNL     1       5.733   2.641  -1.330  0.00  0.00    +0.027 HD
ATOM     25  H   UNL     1       6.125   1.988   0.252  0.00  0.00    +0.027 HD
ATOM     26  H   UNL     1       4.604   0.554  -1.990  0.00  0.00    +0.028 HD
ATOM     27  H   UNL     1       6.268   0.280  -1.479  0.00  0.00    +0.028 HD
ATOM     28  H   UNL     1       5.291  -0.305   0.877  0.00  0.00    +0.049 HD
ATOM     29  H   UNL     1       5.167  -1.467  -0.427  0.00  0.00    +0.049 HD
ENDROOT
BRANCH   1  30
ATOM     30  C   UNL     1      -3.011  -1.568   0.457  0.00  0.00    +0.269 C 
ATOM     31  O   UNL     1      -3.680  -2.513   0.051  0.00  0.00    -0.268 OA
BRANCH  30  35
ATOM     32  C   UNL     1      -6.585   0.421  -0.027  0.00  0.00    +0.133 A 
ATOM     33  C   UNL     1      -5.521  -0.338  -0.296  0.00  0.00    +0.021 A 
ATOM     34  C   UNL     1      -4.629   0.033   0.808  0.00  0.00    +0.157 A 
ATOM     35  N   UNL     1      -3.503  -0.496   1.158  0.00  0.00    -0.156 NA
ATOM     36  N   UNL     1      -5.167   1.087   1.510  0.00  0.00    -0.205 N 
ATOM     37  O   UNL     1      -6.495   1.241   1.097  0.00  0.00    -0.383 OA
ATOM     38  H   UNL     1      -5.364  -1.061  -1.072  0.00  0.00    +0.069 HD
ATOM     39  H   UNL     1      -5.034   1.037   2.514  0.00  0.00    +0.209 HD
BRANCH  32  40
ATOM     40  C   UNL     1      -7.863   0.461  -0.782  0.00  0.00    -0.004 C 
ATOM     41  H   UNL     1      -7.851  -0.227  -1.634  0.00  0.00    +0.031 HD
ATOM     42  H   UNL     1      -8.698   0.181  -0.132  0.00  0.00    +0.031 HD
ATOM     43  H   UNL     1      -8.047   1.470  -1.165  0.00  0.00    +0.031 HD
ENDBRANCH  32  40
ENDBRANCH  30  35
ENDBRANCH   1  30
TORSDOF 3
