REMARK  Name = 
REMARK  4 active torsions:
REMARK  status: ('A' for Active; 'I' for Inactive)
REMARK    1  A    between atoms: C_1  and  C_2
REMARK    2  A    between atoms: C_2  and  C_3
REMARK    3  A    between atoms: C_7  and  N_8
REMARK    4  A    between atoms: C_9  and  C_11
REMARK                            x       y       z     vdW  Elec       q    Type
REMARK                         _______ _______ _______ _____ _____    ______ ____
ROOT
ATOM      1  N   UNL     1      -0.052  -0.025  -0.064  0.00  0.00    -0.280 N 
ATOM      2  C   UNL     1       0.109   1.146  -0.781  0.00  0.00    +0.268 C 
ATOM      3  O   UNL     1      -0.766   1.923  -1.142  0.00  0.00    -0.268 OA
ATOM      4  H   UNL     1       0.821  -0.511   0.132  0.00  0.00    +0.155 HD
ENDROOT
BRANCH   2   5
ATOM      5  C   UNL     1       1.535   1.427  -1.112  0.00  0.00    +0.146 A 
ATOM      6  C   UNL     1       1.874   2.550  -1.844  0.00  0.00    +0.058 A 
ATOM      7  N   UNL     1       3.157   2.826  -2.163  0.00  0.00    -0.258 NA
ATOM      8  C   UNL     1       4.066   1.921  -1.708  0.00  0.00    +0.067 A 
ATOM      9  C   UNL     1       3.754   0.781  -0.953  0.00  0.00    +0.140 A 
ATOM     10  N   UNL     1       4.704  -0.109  -0.519  0.00  0.00    -0.314 N 
ATOM     11  C   UNL     1       6.127   0.194  -0.422  0.00  0.00    +0.014 C 
ATOM     12  C   UNL     1       6.643  -0.778   0.640  0.00  0.00    -0.036 C 
ATOM     13  C   UNL     1       5.667  -1.942   0.562  0.00  0.00    -0.036 C 
ATOM     14  C   UNL     1       4.333  -1.245   0.314  0.00  0.00    +0.014 C 
ATOM     15  N   UNL     1       2.458   0.526  -0.657  0.00  0.00    -0.224 NA
ATOM     16  H   UNL     1       1.129   3.255  -2.197  0.00  0.00    +0.085 HD
ATOM     17  H   UNL     1       5.090   2.145  -1.989  0.00  0.00    +0.086 HD
ATOM     18  H   UNL     1       6.326   1.226  -0.112  0.00  0.00    +0.046 HD
ATOM     19  H   UNL     1       6.612   0.008  -1.386  0.00  0.00    +0.046 HD
ATOM     20  H   UNL     1       6.587  -0.312   1.631  0.00  0.00    +0.028 HD
ATOM     21  H   UNL     1       7.679  -1.078   0.464  0.00  0.00    +0.028 HD
ATOM     22  H   UNL     1       5.921  -2.587  -0.287  0.00  0.00    +0.028 HD
ATOM     23  H   UNL     1       5.659  -2.553   1.470  0.00  0.00    +0.028 HD
ATOM     24  H   UNL     1       3.900  -0.904   1.263  0.00  0.00    +0.046 HD
ATOM     25  H   UNL     1       3.627  -1.918  -0.185  0.00  0.00    +0.046 HD
ENDBRANCH   2   5
BRANCH   1  30
ATOM     26  C   UNL     1      -3.677  -0.651   0.736  0.00  0.00    -0.014 A 
ATOM     27  C   UNL     1      -3.528  -1.851   1.449  0.00  0.00    -0.056 A 
ATOM     28  C   UNL     1      -2.266  -2.415   1.647  0.00  0.00    -0.060 A 
ATOM     29  C   UNL     1      -1.130  -1.791   1.135  0.00  0.00    -0.040 A 
ATOM     30  C   UNL     1      -1.241  -0.598   0.420  0.00  0.00    +0.034 A 
ATOM     31  C   UNL     1      -2.509  -0.042   0.223  0.00  0.00    -0.035 A 
ATOM     32  H   UNL     1      -4.384  -2.373   1.869  0.00  0.00    +0.062 HD
ATOM     33  H   UNL     1      -2.170  -3.344   2.205  0.00  0.00    +0.062 HD
ATOM     34  H   UNL     1      -0.160  -2.250   1.306  0.00  0.00    +0.064 HD
ATOM     35  H   UNL     1      -2.608   0.882  -0.338  0.00  0.00    +0.064 HD
BRANCH  26  36
ATOM     36  C   UNL     1      -5.039  -0.007   0.493  0.00  0.00    +0.135 C 
ATOM     37  N   UNL     1      -5.277   0.166  -0.929  0.00  0.00    -0.282 N 
ATOM     38  C   UNL     1      -5.439   1.483  -1.280  0.00  0.00    +0.307 C 
ATOM     39  O   UNL     1      -5.602   1.887  -2.417  0.00  0.00    -0.252 OA
ATOM     40  N   UNL     1      -5.373   2.242  -0.163  0.00  0.00    -0.238 N 
ATOM     41  C   UNL     1      -5.087   1.478   0.929  0.00  0.00    +0.248 C 
ATOM     42  O   UNL     1      -4.923   1.915   2.059  0.00  0.00    -0.273 OA
ATOM     43  H   UNL     1      -5.179  -0.555  -1.631  0.00  0.00    +0.152 HD
ATOM     44  H   UNL     1      -5.413   3.246  -0.163  0.00  0.00    +0.159 HD
BRANCH  36  45
ATOM     45  C   UNL     1      -6.248  -0.712   1.120  0.00  0.00    -0.031 C 
ATOM     46  H   UNL     1      -6.378  -1.722   0.713  0.00  0.00    +0.026 HD
ATOM     47  H   UNL     1      -7.178  -0.165   0.922  0.00  0.00    +0.026 HD
ATOM     48  H   UNL     1      -6.148  -0.787   2.209  0.00  0.00    +0.026 HD
ENDBRANCH  36  45
ENDBRANCH  26  36
ENDBRANCH   1  30
TORSDOF 4
