REMARK  Name = 
REMARK  5 active torsions:
REMARK  status: ('A' for Active; 'I' for Inactive)
REMARK    1  A    between atoms: C_2  and  C_4
REMARK    2  A    between atoms: C_7  and  C_8
REMARK    3  A    between atoms: N_10  and  C_11
REMARK    4  A    between atoms: C_11  and  C_12
REMARK    5  A    between atoms: N_16  and  C_17
REMARK                            x       y       z     vdW  Elec       q    Type
REMARK                         _______ _______ _______ _____ _____    ______ ____
ROOT
ATOM      1  C   UNL     1      -1.637  -1.762   0.194  0.00  0.00    +0.039 C 
ATOM      2  C   UNL     1      -0.778  -2.640  -0.728  0.00  0.00    -0.032 C 
ATOM      3  C   UNL     1      -0.024  -1.658  -1.604  0.00  0.00    -0.035 C 
ATOM      4  C   UNL     1      -1.009  -0.512  -1.792  0.00  0.00    +0.013 C 
ATOM      5  N   UNL     1      -1.844  -0.523  -0.586  0.00  0.00    -0.325 N 
ATOM      6  H   UNL     1      -2.581  -2.294   0.366  0.00  0.00    +0.051 HD
ATOM      7  H   UNL     1      -1.436  -3.250  -1.362  0.00  0.00    +0.028 HD
ATOM      8  H   UNL     1      -0.116  -3.323  -0.188  0.00  0.00    +0.028 HD
ATOM      9  H   UNL     1       0.283  -2.098  -2.558  0.00  0.00    +0.028 HD
ATOM     10  H   UNL     1       0.882  -1.304  -1.103  0.00  0.00    +0.028 HD
ATOM     11  H   UNL     1      -1.625  -0.693  -2.681  0.00  0.00    +0.046 HD
ATOM     12  H   UNL     1      -0.469   0.433  -1.913  0.00  0.00    +0.046 HD
ENDROOT
BRANCH   5  13
ATOM     13  C   UNL     1      -2.923   0.327  -0.438  0.00  0.00    +0.030 A 
ATOM     14  C   UNL     1      -3.900   0.141   0.554  0.00  0.00    -0.041 A 
ATOM     15  C   UNL     1      -4.986   1.014   0.709  0.00  0.00    -0.060 A 
ATOM     16  C   UNL     1      -5.123   2.113  -0.128  0.00  0.00    -0.062 A 
ATOM     17  C   UNL     1      -4.172   2.336  -1.114  0.00  0.00    -0.060 A 
ATOM     18  C   UNL     1      -3.092   1.455  -1.260  0.00  0.00    -0.041 A 
ATOM     19  H   UNL     1      -3.843  -0.697   1.241  0.00  0.00    +0.064 HD
ATOM     20  H   UNL     1      -5.717   0.831   1.491  0.00  0.00    +0.062 HD
ATOM     21  H   UNL     1      -5.960   2.795  -0.008  0.00  0.00    +0.062 HD
ATOM     22  H   UNL     1      -4.256   3.197  -1.771  0.00  0.00    +0.062 HD
ATOM     23  H   UNL     1      -2.367   1.686  -2.035  0.00  0.00    +0.064 HD
ENDBRANCH   5  13
BRANCH   1  24
ATOM     24  C   UNL     1      -0.974  -1.472   1.561  0.00  0.00    +0.030 C 
ATOM     25  H   UNL     1      -0.754  -2.414   2.074  0.00  0.00    +0.048 HD
ATOM     26  H   UNL     1      -1.664  -0.908   2.197  0.00  0.00    +0.048 HD
BRANCH  24  29
ATOM     27  C   UNL     1       1.489  -1.159   1.666  0.00  0.00    +0.247 C 
ATOM     28  O   UNL     1       1.686  -2.310   2.050  0.00  0.00    -0.270 OA
ATOM     29  N   UNL     1       0.223  -0.658   1.468  0.00  0.00    -0.309 N 
ATOM     30  H   UNL     1       0.104   0.260   1.049  0.00  0.00    +0.149 HD
BRANCH  27  34
ATOM     31  C   UNL     1       4.886   1.375   0.832  0.00  0.00    +0.066 A 
ATOM     32  C   UNL     1       5.038   0.114   1.433  0.00  0.00    -0.047 A 
ATOM     33  C   UNL     1       3.929  -0.694   1.702  0.00  0.00    -0.046 A 
ATOM     34  C   UNL     1       2.638  -0.255   1.378  0.00  0.00    +0.072 A 
ATOM     35  C   UNL     1       2.487   1.000   0.781  0.00  0.00    +0.136 A 
ATOM     36  F   UNL     1       1.273   1.460   0.435  0.00  0.00    -0.205 F 
ATOM     37  C   UNL     1       3.591   1.806   0.511  0.00  0.00    -0.012 A 
ATOM     38  H   UNL     1       6.040  -0.235   1.687  0.00  0.00    +0.063 HD
ATOM     39  H   UNL     1       4.082  -1.667   2.163  0.00  0.00    +0.063 HD
ATOM     40  H   UNL     1       3.447   2.777   0.043  0.00  0.00    +0.065 HD
BRANCH  31  42
ATOM     41  O   UNL     1       5.858   3.366  -0.024  0.00  0.00    -0.241 OA
ATOM     42  C   UNL     1       6.088   2.248   0.533  0.00  0.00    +0.387 C 
ATOM     43  O   UNL     1       7.227   1.792   0.859  0.00  0.00    -0.241 OA
ENDBRANCH  31  42
ENDBRANCH  27  34
ENDBRANCH  24  29
ENDBRANCH   1  24
TORSDOF 5
