REMARK  Name = 
REMARK  8 active torsions:
REMARK  status: ('A' for Active; 'I' for Inactive)
REMARK    1  A    between atoms: C_1  and  C_2
REMARK    2  A    between atoms: C_2  and  C_3
REMARK    3  A    between atoms: C_2  and  C_10
REMARK    4  A    between atoms: C_3  and  C_4
REMARK    5  A    between atoms: N_8  and  C_9
REMARK    6  A    between atoms: C_14  and  N_16
REMARK    7  A    between atoms: C_21  and  C_28
REMARK    8  A    between atoms: C_23  and  C_24
REMARK                            x       y       z     vdW  Elec       q    Type
REMARK                         _______ _______ _______ _____ _____    ______ ____
ROOT
ATOM      1  N   UNL     1       1.071   0.629  -1.215  0.00  0.00    -0.263 N 
ATOM      2  C   UNL     1       0.221   1.623  -1.858  0.00  0.00    +0.046 C 
ATOM      3  C   UNL     1      -1.143   1.312  -1.332  0.00  0.00    -0.006 A 
ATOM      4  C   UNL     1      -1.067   0.245  -0.446  0.00  0.00    +0.043 A 
ATOM      5  C   UNL     1      -2.176  -0.276   0.197  0.00  0.00    -0.046 A 
ATOM      6  C   UNL     1      -3.427   0.300  -0.067  0.00  0.00    -0.043 A 
ATOM      7  C   UNL     1      -3.505   1.395  -0.963  0.00  0.00    -0.046 A 
ATOM      8  C   UNL     1      -2.365   1.917  -1.608  0.00  0.00    +0.060 A 
ATOM      9  C   UNL     1       0.332  -0.186  -0.351  0.00  0.00    +0.251 C 
ATOM     10  O   UNL     1       0.675  -1.091   0.388  0.00  0.00    -0.270 OA
ATOM     11  H   UNL     1       0.259   1.493  -2.944  0.00  0.00    +0.052 HD
ATOM     12  H   UNL     1       0.532   2.627  -1.555  0.00  0.00    +0.052 HD
ATOM     13  H   UNL     1      -2.060  -1.115   0.878  0.00  0.00    +0.063 HD
ATOM     14  H   UNL     1      -4.477   1.851  -1.158  0.00  0.00    +0.063 HD
ENDROOT
BRANCH   6  15
ATOM     15  C   UNL     1      -4.665  -0.258   0.616  0.00  0.00    -0.016 C 
ATOM     16  C   UNL     1      -5.752  -0.681  -0.384  0.00  0.00    -0.046 C 
ATOM     17  C   UNL     1      -6.917  -1.391   0.314  0.00  0.00    -0.053 C 
ATOM     18  C   UNL     1      -7.154  -0.914   1.749  0.00  0.00    -0.053 C 
ATOM     19  C   UNL     1      -6.716   0.531   1.948  0.00  0.00    -0.053 C 
ATOM     20  C   UNL     1      -5.223   0.724   1.667  0.00  0.00    -0.046 C 
ATOM     21  H   UNL     1      -4.367  -1.170   1.153  0.00  0.00    +0.035 HD
ATOM     22  H   UNL     1      -6.145   0.198  -0.911  0.00  0.00    +0.027 HD
ATOM     23  H   UNL     1      -5.339  -1.340  -1.157  0.00  0.00    +0.027 HD
ATOM     24  H   UNL     1      -7.825  -1.240  -0.282  0.00  0.00    +0.027 HD
ATOM     25  H   UNL     1      -6.737  -2.473   0.329  0.00  0.00    +0.027 HD
ATOM     26  H   UNL     1      -8.215  -1.029   2.001  0.00  0.00    +0.027 HD
ATOM     27  H   UNL     1      -6.598  -1.557   2.445  0.00  0.00    +0.027 HD
ATOM     28  H   UNL     1      -7.297   1.178   1.278  0.00  0.00    +0.027 HD
ATOM     29  H   UNL     1      -6.942   0.857   2.970  0.00  0.00    +0.027 HD
ATOM     30  H   UNL     1      -5.065   1.770   1.375  0.00  0.00    +0.027 HD
ATOM     31  H   UNL     1      -4.656   0.591   2.599  0.00  0.00    +0.027 HD
ENDBRANCH   6  15
BRANCH   1  36
ATOM     32  C   UNL     1       4.619  -0.631  -1.249  0.00  0.00    -0.042 A 
ATOM     33  C   UNL     1       5.219   0.347  -2.053  0.00  0.00    -0.058 A 
ATOM     34  C   UNL     1       4.464   1.389  -2.581  0.00  0.00    -0.060 A 
ATOM     35  C   UNL     1       3.098   1.474  -2.305  0.00  0.00    -0.040 A 
ATOM     36  C   UNL     1       2.461   0.523  -1.494  0.00  0.00    +0.037 A 
ATOM     37  C   UNL     1       3.242  -0.524  -0.980  0.00  0.00    -0.037 A 
ATOM     38  H   UNL     1       6.282   0.297  -2.281  0.00  0.00    +0.062 HD
ATOM     39  H   UNL     1       4.938   2.138  -3.211  0.00  0.00    +0.062 HD
ATOM     40  H   UNL     1       2.556   2.309  -2.739  0.00  0.00    +0.064 HD
ATOM     41  H   UNL     1       2.785  -1.286  -0.356  0.00  0.00    +0.064 HD
BRANCH  32  42
ATOM     42  C   UNL     1       5.481  -1.749  -0.677  0.00  0.00    -0.012 C 
ATOM     43  H   UNL     1       6.324  -1.866  -1.377  0.00  0.00    +0.035 HD
BRANCH  42  44
ATOM     44  C   UNL     1       4.801  -3.126  -0.666  0.00  0.00    -0.058 C 
ATOM     45  H   UNL     1       4.446  -3.393  -1.669  0.00  0.00    +0.024 HD
ATOM     46  H   UNL     1       5.511  -3.898  -0.348  0.00  0.00    +0.024 HD
ATOM     47  H   UNL     1       3.941  -3.169   0.010  0.00  0.00    +0.024 HD
ENDBRANCH  42  44
BRANCH  42  48
ATOM     48  C   UNL     1       6.115  -1.369   0.680  0.00  0.00    +0.014 C 
ATOM     49  H   UNL     1       6.583  -0.378   0.625  0.00  0.00    +0.035 HD
ATOM     50  H   UNL     1       6.941  -2.069   0.875  0.00  0.00    +0.035 HD
BRANCH  48  51
ATOM     51  C   UNL     1       5.193  -1.445   1.852  0.00  0.00    +0.134 A 
ATOM     52  N   UNL     1       5.009  -2.517   2.603  0.00  0.00    -0.135 NA
ATOM     53  N   UNL     1       4.102  -2.208   3.588  0.00  0.00    -0.138 NA
ATOM     54  C   UNL     1       3.756  -0.953   3.423  0.00  0.00    +0.120 A 
ATOM     55  N   UNL     1       4.433  -0.425   2.363  0.00  0.00    -0.320 N 
ATOM     56  H   UNL     1       3.053  -0.400   4.029  0.00  0.00    +0.105 HD
BRANCH  55  57
ATOM     57  C   UNL     1       4.338   0.947   1.942  0.00  0.00    +0.014 C 
ATOM     58  H   UNL     1       4.972   1.134   1.076  0.00  0.00    +0.046 HD
ATOM     59  H   UNL     1       4.666   1.581   2.770  0.00  0.00    +0.046 HD
ATOM     60  H   UNL     1       3.297   1.164   1.695  0.00  0.00    +0.046 HD
ENDBRANCH  55  57
ENDBRANCH  48  51
ENDBRANCH  42  48
ENDBRANCH  32  42
ENDBRANCH   1  36
BRANCH   8  61
ATOM     61  C   UNL     1      -2.456   3.088  -2.548  0.00  0.00    +0.418 C 
ATOM     62  F   UNL     1      -1.746   4.160  -2.101  0.00  0.00    -0.166 F 
ATOM     63  F   UNL     1      -1.954   2.803  -3.783  0.00  0.00    -0.166 F 
ATOM     64  F   UNL     1      -3.724   3.535  -2.752  0.00  0.00    -0.166 F 
ENDBRANCH   8  61
TORSDOF 8
