REMARK  Name = 
REMARK  3 active torsions:
REMARK  status: ('A' for Active; 'I' for Inactive)
REMARK    1  A    between atoms: C_2  and  C_4
REMARK    2  A    between atoms: C_7  and  N_8
REMARK    3  A    between atoms: C_14  and  C_15
REMARK                            x       y       z     vdW  Elec       q    Type
REMARK                         _______ _______ _______ _____ _____    ______ ____
ROOT
ATOM      1  N   UNL     1       1.841  -0.232  -0.108  0.00  0.00    -0.296 N 
ATOM      2  C   UNL     1       0.838  -1.142   0.100  0.00  0.00    +0.302 C 
ATOM      3  O   UNL     1       0.946  -2.094   0.874  0.00  0.00    -0.253 OA
ATOM      4  N   UNL     1      -0.274  -0.963  -0.682  0.00  0.00    -0.285 N 
ATOM      5  C   UNL     1      -0.521   0.091  -1.648  0.00  0.00    +0.017 C 
ATOM      6  C   UNL     1      -1.787  -0.340  -2.384  0.00  0.00    -0.029 C 
ATOM      7  C   UNL     1      -2.516  -1.278  -1.406  0.00  0.00    +0.004 C 
ATOM      8  C   UNL     1      -1.337  -1.947  -0.681  0.00  0.00    +0.023 C 
ATOM      9  H   UNL     1       1.554   0.716  -0.322  0.00  0.00    +0.151 HD
ATOM     10  H   UNL     1      -0.645   1.031  -1.106  0.00  0.00    +0.047 HD
ATOM     11  H   UNL     1       0.329   0.194  -2.330  0.00  0.00    +0.047 HD
ATOM     12  H   UNL     1      -1.486  -0.930  -3.262  0.00  0.00    +0.029 HD
ATOM     13  H   UNL     1      -2.383   0.495  -2.759  0.00  0.00    +0.029 HD
ATOM     14  H   UNL     1      -3.052  -2.034  -1.996  0.00  0.00    +0.037 HD
ATOM     15  H   UNL     1      -1.548  -2.329   0.324  0.00  0.00    +0.047 HD
ATOM     16  H   UNL     1      -0.971  -2.790  -1.282  0.00  0.00    +0.047 HD
ENDROOT
BRANCH   1  20
ATOM     17  C   UNL     1       4.080   1.420   1.993  0.00  0.00    +0.062 C 
ATOM     18  C   UNL     1       5.065   1.039   0.898  0.00  0.00    -0.038 C 
ATOM     19  C   UNL     1       4.218   0.371  -0.170  0.00  0.00    -0.034 C 
ATOM     20  C   UNL     1       3.099  -0.336   0.595  0.00  0.00    +0.025 C 
ATOM     21  C   UNL     1       3.051   0.286   1.998  0.00  0.00    -0.021 C 
ATOM     22  H   UNL     1       4.598   1.482   2.958  0.00  0.00    +0.042 HD
ATOM     23  H   UNL     1       5.619   1.898   0.500  0.00  0.00    +0.027 HD
ATOM     24  H   UNL     1       5.793   0.312   1.285  0.00  0.00    +0.027 HD
ATOM     25  H   UNL     1       3.824   1.116  -0.870  0.00  0.00    +0.028 HD
ATOM     26  H   UNL     1       4.809  -0.334  -0.767  0.00  0.00    +0.028 HD
ATOM     27  H   UNL     1       3.344  -1.401   0.687  0.00  0.00    +0.050 HD
ATOM     28  H   UNL     1       3.336  -0.477   2.743  0.00  0.00    +0.029 HD
ATOM     29  H   UNL     1       2.042   0.629   2.275  0.00  0.00    +0.029 HD
BRANCH  17  31
ATOM     30  O   UNL     1       3.047   3.381   2.823  0.00  0.00    -0.246 OA
ATOM     31  C   UNL     1       3.301   2.731   1.767  0.00  0.00    +0.359 C 
ATOM     32  O   UNL     1       2.991   3.002   0.573  0.00  0.00    -0.246 OA
ENDBRANCH  17  31
ENDBRANCH   1  20
BRANCH   7  33
ATOM     33  C   UNL     1      -3.531  -0.695  -0.439  0.00  0.00    -0.008 A 
ATOM     34  C   UNL     1      -4.362  -1.596   0.252  0.00  0.00    -0.056 A 
ATOM     35  C   UNL     1      -5.320  -1.141   1.159  0.00  0.00    -0.061 A 
ATOM     36  C   UNL     1      -5.475   0.226   1.387  0.00  0.00    -0.059 A 
ATOM     37  C   UNL     1      -4.662   1.132   0.715  0.00  0.00    -0.026 A 
ATOM     38  C   UNL     1      -3.709   0.670  -0.188  0.00  0.00    +0.127 A 
ATOM     39  F   UNL     1      -2.965   1.582  -0.821  0.00  0.00    -0.205 F 
ATOM     40  H   UNL     1      -4.260  -2.667   0.090  0.00  0.00    +0.062 HD
ATOM     41  H   UNL     1      -5.942  -1.861   1.689  0.00  0.00    +0.062 HD
ATOM     42  H   UNL     1      -6.221   0.580   2.094  0.00  0.00    +0.062 HD
ATOM     43  H   UNL     1      -4.760   2.200   0.887  0.00  0.00    +0.065 HD
ENDBRANCH   7  33
TORSDOF 3
