REMARK  Name = 
REMARK  7 active torsions:
REMARK  status: ('A' for Active; 'I' for Inactive)
REMARK    1  A    between atoms: C_1  and  C_2
REMARK    2  A    between atoms: C_4  and  C_5
REMARK    3  A    between atoms: N_8  and  C_9
REMARK    4  A    between atoms: C_12  and  C_13
REMARK    5  A    between atoms: C_17  and  C_18
REMARK    6  A    between atoms: C_18  and  N_19
REMARK    7  A    between atoms: C_20  and  C_21
REMARK                            x       y       z     vdW  Elec       q    Type
REMARK                         _______ _______ _______ _____ _____    ______ ____
ROOT
ATOM      1  C   UNL     1       0.083  -1.785   1.268  0.00  0.00    +0.268 C 
ATOM      2  O   UNL     1      -0.147  -2.673   2.091  0.00  0.00    -0.268 OA
ATOM      3  N   UNL     1      -0.914  -1.349   0.407  0.00  0.00    -0.295 N 
ATOM      4  C   UNL     1      -2.225  -1.972   0.418  0.00  0.00    +0.020 C 
ATOM      5  C   UNL     1      -2.936  -1.455  -0.836  0.00  0.00    -0.005 C 
ATOM      6  C   UNL     1      -2.303  -0.057  -1.038  0.00  0.00    +0.005 C 
ATOM      7  C   UNL     1      -0.856  -0.249  -0.548  0.00  0.00    +0.022 C 
ATOM      8  H   UNL     1      -2.740  -1.638   1.326  0.00  0.00    +0.047 HD
ATOM      9  H   UNL     1      -2.133  -3.061   0.467  0.00  0.00    +0.047 HD
ATOM     10  H   UNL     1      -4.018  -1.395  -0.661  0.00  0.00    +0.033 HD
ATOM     11  H   UNL     1      -2.265   0.224  -2.099  0.00  0.00    +0.037 HD
ATOM     12  H   UNL     1      -0.427   0.651  -0.098  0.00  0.00    +0.047 HD
ATOM     13  H   UNL     1      -0.216  -0.575  -1.376  0.00  0.00    +0.047 HD
ENDROOT
BRANCH   6  14
ATOM     14  C   UNL     1      -3.111   1.020  -0.327  0.00  0.00    -0.042 A 
ATOM     15  C   UNL     1      -2.891   1.392   1.008  0.00  0.00    -0.058 A 
ATOM     16  C   UNL     1      -3.677   2.374   1.615  0.00  0.00    -0.061 A 
ATOM     17  C   UNL     1      -4.698   2.995   0.901  0.00  0.00    -0.062 A 
ATOM     18  C   UNL     1      -4.937   2.633  -0.422  0.00  0.00    -0.061 A 
ATOM     19  C   UNL     1      -4.152   1.651  -1.029  0.00  0.00    -0.058 A 
ATOM     20  H   UNL     1      -2.110   0.923   1.601  0.00  0.00    +0.062 HD
ATOM     21  H   UNL     1      -3.492   2.653   2.649  0.00  0.00    +0.062 HD
ATOM     22  H   UNL     1      -5.308   3.760   1.375  0.00  0.00    +0.062 HD
ATOM     23  H   UNL     1      -5.735   3.114  -0.981  0.00  0.00    +0.062 HD
ATOM     24  H   UNL     1      -4.360   1.381  -2.063  0.00  0.00    +0.062 HD
ENDBRANCH   6  14
BRANCH   1  29
ATOM     25  C   UNL     1       2.473  -1.442   2.024  0.00  0.00    +0.135 A 
ATOM     26  O   UNL     1       3.546  -0.703   1.616  0.00  0.00    -0.440 OA
ATOM     27  C   UNL     1       3.096  -0.015   0.519  0.00  0.00    +0.231 A 
ATOM     28  N   UNL     1       1.837  -0.267   0.218  0.00  0.00    -0.204 NA
ATOM     29  C   UNL     1       1.415  -1.178   1.175  0.00  0.00    +0.167 A 
BRANCH  27  30
ATOM     30  C   UNL     1       3.978   0.964  -0.289  0.00  0.00    +0.074 A 
ATOM     31  C   UNL     1       3.623   1.716  -1.419  0.00  0.00    +0.062 A 
ATOM     32  N   UNL     1       4.639   2.462  -1.866  0.00  0.00    -0.179 NA
ATOM     33  N   UNL     1       5.641   2.176  -1.010  0.00  0.00    -0.274 N 
ATOM     34  C   UNL     1       5.293   1.279  -0.042  0.00  0.00    +0.037 A 
ATOM     35  H   UNL     1       2.671   1.752  -1.934  0.00  0.00    +0.086 HD
ATOM     36  H   UNL     1       5.986   0.948   0.718  0.00  0.00    +0.083 HD
BRANCH  33  37
ATOM     37  C   UNL     1       6.925   2.810  -1.185  0.00  0.00    +0.030 C 
ATOM     38  H   UNL     1       6.788   3.892  -1.107  0.00  0.00    +0.047 HD
ATOM     39  H   UNL     1       7.311   2.541  -2.171  0.00  0.00    +0.047 HD
ATOM     40  H   UNL     1       7.611   2.463  -0.408  0.00  0.00    +0.047 HD
ENDBRANCH  33  37
ENDBRANCH  27  30
BRANCH  25  41
ATOM     41  C   UNL     1       2.664  -2.306   3.204  0.00  0.00    -0.004 C 
ATOM     42  H   UNL     1       1.938  -2.057   3.984  0.00  0.00    +0.031 HD
ATOM     43  H   UNL     1       2.536  -3.358   2.933  0.00  0.00    +0.031 HD
ATOM     44  H   UNL     1       3.667  -2.186   3.626  0.00  0.00    +0.031 HD
ENDBRANCH  25  41
ENDBRANCH   1  29
BRANCH   5  45
ATOM     45  C   UNL     1      -2.695  -2.345  -2.068  0.00  0.00    -0.002 C 
ATOM     46  H   UNL     1      -1.624  -2.513  -2.232  0.00  0.00    +0.043 HD
ATOM     47  H   UNL     1      -3.074  -1.836  -2.961  0.00  0.00    +0.043 HD
BRANCH  45  48
ATOM     48  N   UNL     1      -3.363  -3.640  -1.983  0.00  0.00    -0.330 NA
ATOM     49  H   UNL     1      -4.349  -3.515  -1.758  0.00  0.00    +0.118 HD
ATOM     50  H   UNL     1      -2.963  -4.204  -1.234  0.00  0.00    +0.118 HD
ENDBRANCH  45  48
ENDBRANCH   5  45
TORSDOF 7
