REMARK  Name = 
REMARK  4 active torsions:
REMARK  status: ('A' for Active; 'I' for Inactive)
REMARK    1  A    between atoms: C_2  and  C_3
REMARK    2  A    between atoms: C_2  and  C_20
REMARK    3  A    between atoms: C_10  and  C_11
REMARK    4  A    between atoms: C_21  and  C_22
REMARK                            x       y       z     vdW  Elec       q    Type
REMARK                         _______ _______ _______ _____ _____    ______ ____
ROOT
ATOM      1  O   UNL     1      -0.599   0.011   2.447  0.00  0.00    -0.285 OA
ATOM      2  C   UNL     1      -0.870  -0.341   1.304  0.00  0.00    +0.212 C 
ENDROOT
BRANCH   2   3
ATOM      3  C   UNL     1      -2.219  -0.745   0.925  0.00  0.00    +0.057 A 
ATOM      4  C   UNL     1      -3.005  -0.185  -0.080  0.00  0.00    +0.058 A 
ATOM      5  N   UNL     1      -4.192  -0.880  -0.099  0.00  0.00    -0.354 N 
ATOM      6  C   UNL     1      -4.216  -1.841   0.882  0.00  0.00    +0.048 A 
ATOM      7  C   UNL     1      -5.220  -2.754   1.224  0.00  0.00    -0.037 A 
ATOM      8  C   UNL     1      -4.969  -3.623   2.290  0.00  0.00    -0.046 A 
ATOM      9  C   UNL     1      -3.761  -3.570   2.981  0.00  0.00    +0.019 A 
ATOM     10 BR   UNL     1      -3.455  -4.762   4.420  0.00  0.00    -0.050 Br
ATOM     11  C   UNL     1      -2.767  -2.653   2.630  0.00  0.00    -0.038 A 
ATOM     12  C   UNL     1      -2.998  -1.769   1.556  0.00  0.00    +0.012 A 
ATOM     13  H   UNL     1      -4.959  -0.684  -0.728  0.00  0.00    +0.166 HD
ATOM     14  H   UNL     1      -6.163  -2.792   0.687  0.00  0.00    +0.064 HD
ATOM     15  H   UNL     1      -5.732  -4.343   2.574  0.00  0.00    +0.063 HD
ATOM     16  H   UNL     1      -1.828  -2.614   3.175  0.00  0.00    +0.064 HD
BRANCH   4  17
ATOM     17  C   UNL     1      -2.761   0.943  -0.976  0.00  0.00    -0.001 A 
ATOM     18  C   UNL     1      -2.827   0.775  -2.365  0.00  0.00    -0.053 A 
ATOM     19  C   UNL     1      -2.575   1.853  -3.219  0.00  0.00    -0.061 A 
ATOM     20  C   UNL     1      -2.267   3.105  -2.689  0.00  0.00    -0.062 A 
ATOM     21  C   UNL     1      -2.204   3.281  -1.308  0.00  0.00    -0.061 A 
ATOM     22  C   UNL     1      -2.449   2.204  -0.454  0.00  0.00    -0.053 A 
ATOM     23  H   UNL     1      -3.047  -0.200  -2.796  0.00  0.00    +0.062 HD
ATOM     24  H   UNL     1      -2.607   1.714  -4.297  0.00  0.00    +0.062 HD
ATOM     25  H   UNL     1      -2.068   3.942  -3.354  0.00  0.00    +0.062 HD
ATOM     26  H   UNL     1      -1.964   4.258  -0.896  0.00  0.00    +0.062 HD
ATOM     27  H   UNL     1      -2.400   2.359   0.622  0.00  0.00    +0.062 HD
ENDBRANCH   4  17
ENDBRANCH   2   3
BRANCH   2  28
ATOM     28  C   UNL     1       0.148  -0.422   0.271  0.00  0.00    +0.088 A 
ATOM     29  C   UNL     1       0.149  -0.979  -1.000  0.00  0.00    -0.020 A 
ATOM     30  C   UNL     1       1.431  -0.775  -1.561  0.00  0.00    +0.068 A 
ATOM     31  C   UNL     1       1.992  -1.101  -2.853  0.00  0.00    +0.274 A 
ATOM     32  O   UNL     1       1.369  -1.680  -3.737  0.00  0.00    -0.266 OA
ATOM     33  N   UNL     1       3.311  -0.689  -3.006  0.00  0.00    -0.242 N 
ATOM     34  N   UNL     1       4.103  -0.064  -2.053  0.00  0.00    -0.169 NA
ATOM     35  C   UNL     1       3.587   0.190  -0.878  0.00  0.00    +0.115 A 
ATOM     36  C   UNL     1       2.207  -0.142  -0.616  0.00  0.00    +0.080 A 
ATOM     37  N   UNL     1       1.415   0.095   0.474  0.00  0.00    -0.350 N 
ATOM     38  H   UNL     1      -0.683  -1.474  -1.487  0.00  0.00    +0.065 HD
ATOM     39  H   UNL     1       3.757  -0.896  -3.893  0.00  0.00    +0.192 HD
ATOM     40  H   UNL     1       1.686   0.569   1.326  0.00  0.00    +0.166 HD
BRANCH  35  41
ATOM     41  C   UNL     1       4.436   0.821   0.163  0.00  0.00    +0.004 A 
ATOM     42  C   UNL     1       4.457   0.330   1.477  0.00  0.00    -0.050 A 
ATOM     43  C   UNL     1       5.279   0.935   2.431  0.00  0.00    -0.026 A 
ATOM     44  C   UNL     1       6.081   2.011   2.065  0.00  0.00    +0.123 A 
ATOM     45  F   UNL     1       6.868   2.587   2.981  0.00  0.00    -0.205 F 
ATOM     46  C   UNL     1       6.085   2.492   0.759  0.00  0.00    -0.026 A 
ATOM     47  C   UNL     1       5.264   1.892  -0.199  0.00  0.00    -0.050 A 
ATOM     48  H   UNL     1       3.868  -0.539   1.761  0.00  0.00    +0.062 HD
ATOM     49  H   UNL     1       5.309   0.566   3.452  0.00  0.00    +0.065 HD
ATOM     50  H   UNL     1       6.728   3.324   0.490  0.00  0.00    +0.065 HD
ATOM     51  H   UNL     1       5.272   2.260  -1.223  0.00  0.00    +0.062 HD
ENDBRANCH  35  41
ENDBRANCH   2  28
TORSDOF 4
