REMARK  Name = 
REMARK  4 active torsions:
REMARK  status: ('A' for Active; 'I' for Inactive)
REMARK    1  A    between atoms: C_1  and  C_2
REMARK    2  A    between atoms: N_7  and  C_10
REMARK    3  A    between atoms: C_13  and  O_16
REMARK    4  A    between atoms: O_16  and  C_17
REMARK                            x       y       z     vdW  Elec       q    Type
REMARK                         _______ _______ _______ _____ _____    ______ ____
ROOT
ATOM      1  C   UNL     1      -4.574   0.417   0.020  0.00  0.00    +0.213 C 
ATOM      2  O   UNL     1      -5.166   1.416   0.427  0.00  0.00    -0.276 OA
ATOM      3  N   UNL     1      -3.200   0.277   0.103  0.00  0.00    -0.299 N 
ATOM      4  C   UNL     1      -2.399   1.383   0.633  0.00  0.00    +0.030 C 
ATOM      5  C   UNL     1      -1.010   1.484  -0.024  0.00  0.00    +0.028 C 
ATOM      6  N   UNL     1      -0.268   0.210   0.049  0.00  0.00    -0.327 N 
ATOM      7  C   UNL     1      -1.049  -1.010   0.303  0.00  0.00    +0.028 C 
ATOM      8  C   UNL     1      -2.458  -0.916  -0.315  0.00  0.00    +0.030 C 
ATOM      9  H   UNL     1      -2.291   1.203   1.709  0.00  0.00    +0.048 HD
ATOM     10  H   UNL     1      -2.933   2.333   0.512  0.00  0.00    +0.048 HD
ATOM     11  H   UNL     1      -1.126   1.762  -1.078  0.00  0.00    +0.048 HD
ATOM     12  H   UNL     1      -0.464   2.288   0.485  0.00  0.00    +0.048 HD
ATOM     13  H   UNL     1      -1.131  -1.165   1.386  0.00  0.00    +0.048 HD
ATOM     14  H   UNL     1      -0.559  -1.888  -0.134  0.00  0.00    +0.048 HD
ATOM     15  H   UNL     1      -3.030  -1.813  -0.060  0.00  0.00    +0.048 HD
ATOM     16  H   UNL     1      -2.380  -0.868  -1.408  0.00  0.00    +0.048 HD
ENDROOT
BRANCH   6  17
ATOM     17  C   UNL     1       1.119   0.206   0.072  0.00  0.00    +0.030 A 
ATOM     18  C   UNL     1       1.855  -0.843   0.643  0.00  0.00    -0.037 A 
ATOM     19  C   UNL     1       3.260  -0.851   0.663  0.00  0.00    -0.018 A 
ATOM     20  C   UNL     1       3.974   0.201   0.101  0.00  0.00    +0.120 A 
ATOM     21  C   UNL     1       3.268   1.251  -0.477  0.00  0.00    -0.018 A 
ATOM     22  C   UNL     1       1.867   1.251  -0.491  0.00  0.00    -0.037 A 
ATOM     23  H   UNL     1       1.349  -1.681   1.116  0.00  0.00    +0.064 HD
ATOM     24  H   UNL     1       3.756  -1.694   1.131  0.00  0.00    +0.065 HD
ATOM     25  H   UNL     1       3.808   2.079  -0.929  0.00  0.00    +0.065 HD
ATOM     26  H   UNL     1       1.372   2.085  -0.980  0.00  0.00    +0.064 HD
BRANCH  20  27
ATOM     27  O   UNL     1       5.334   0.321   0.050  0.00  0.00    -0.495 OA
BRANCH  27  28
ATOM     28  C   UNL     1       6.093  -0.730   0.634  0.00  0.00    +0.079 C 
ATOM     29  H   UNL     1       5.911  -1.680   0.122  0.00  0.00    +0.066 HD
ATOM     30  H   UNL     1       5.891  -0.814   1.708  0.00  0.00    +0.066 HD
ATOM     31  H   UNL     1       7.152  -0.484   0.513  0.00  0.00    +0.066 HD
ENDBRANCH  27  28
ENDBRANCH  20  27
ENDBRANCH   6  17
BRANCH   1  32
ATOM     32  C   UNL     1      -5.341  -0.727  -0.594  0.00  0.00    +0.012 C 
ATOM     33  H   UNL     1      -4.900  -1.020  -1.550  0.00  0.00    +0.032 HD
ATOM     34  H   UNL     1      -6.371  -0.410  -0.784  0.00  0.00    +0.032 HD
ATOM     35  H   UNL     1      -5.359  -1.575   0.095  0.00  0.00    +0.032 HD
ENDBRANCH   1  32
TORSDOF 4
