REMARK  Name = 
REMARK  8 active torsions:
REMARK  status: ('A' for Active; 'I' for Inactive)
REMARK    1  A    between atoms: C_1  and  C_2
REMARK    2  A    between atoms: C_2  and  C_3
REMARK    3  A    between atoms: C_2  and  C_10
REMARK    4  A    between atoms: C_3  and  C_4
REMARK    5  A    between atoms: N_8  and  C_9
REMARK    6  A    between atoms: N_16  and  C_17
REMARK    7  A    between atoms: C_24  and  N_26
REMARK    8  A    between atoms: C_33  and  C_34
REMARK                            x       y       z     vdW  Elec       q    Type
REMARK                         _______ _______ _______ _____ _____    ______ ____
ROOT
ATOM      1  C   UNL     1      -1.627   0.872   0.321  0.00  0.00    -0.038 A 
ATOM      2  C   UNL     1      -0.237   1.001   0.227  0.00  0.00    -0.018 A 
ATOM      3  C   UNL     1       0.534  -0.141   0.109  0.00  0.00    +0.128 A 
ATOM      4  N   UNL     1       1.922  -0.145  -0.012  0.00  0.00    -0.254 N 
ATOM      5  C   UNL     1       2.766   0.920  -0.175  0.00  0.00    +0.305 C 
ATOM      6  O   UNL     1       2.440   2.097  -0.269  0.00  0.00    -0.252 OA
ATOM      7  N   UNL     1       4.080   0.502  -0.246  0.00  0.00    -0.296 N 
ATOM      8  N   UNL     1       0.001  -1.376   0.101  0.00  0.00    -0.217 NA
ATOM      9  C   UNL     1      -1.334  -1.526   0.187  0.00  0.00    +0.130 A 
ATOM     10  C   UNL     1      -2.174  -0.418   0.288  0.00  0.00    -0.018 A 
ATOM     11  H   UNL     1       0.216   1.984   0.246  0.00  0.00    +0.065 HD
ATOM     12  H   UNL     1       2.287  -1.079  -0.126  0.00  0.00    +0.158 HD
ATOM     13  H   UNL     1       4.282  -0.373   0.216  0.00  0.00    +0.151 HD
ATOM     14  H   UNL     1      -3.250  -0.535   0.340  0.00  0.00    +0.065 HD
ENDROOT
BRANCH   7  15
ATOM     15  C   UNL     1       5.177   1.458  -0.345  0.00  0.00    +0.025 C 
ATOM     16  C   UNL     1       6.412   0.789  -0.972  0.00  0.00    -0.034 C 
ATOM     17  C   UNL     1       7.364   0.244   0.086  0.00  0.00    -0.051 C 
ATOM     18  C   UNL     1       7.890   1.353   1.000  0.00  0.00    -0.053 C 
ATOM     19  C   UNL     1       6.920   2.526   1.159  0.00  0.00    -0.051 C 
ATOM     20  C   UNL     1       5.469   2.082   1.032  0.00  0.00    -0.034 C 
ATOM     21  H   UNL     1       4.849   2.253  -1.029  0.00  0.00    +0.050 HD
ATOM     22  H   UNL     1       6.117  -0.012  -1.660  0.00  0.00    +0.028 HD
ATOM     23  H   UNL     1       6.953   1.532  -1.573  0.00  0.00    +0.028 HD
ATOM     24  H   UNL     1       8.207  -0.270  -0.390  0.00  0.00    +0.027 HD
ATOM     25  H   UNL     1       6.842  -0.508   0.691  0.00  0.00    +0.027 HD
ATOM     26  H   UNL     1       8.117   0.920   1.982  0.00  0.00    +0.027 HD
ATOM     27  H   UNL     1       8.841   1.735   0.608  0.00  0.00    +0.027 HD
ATOM     28  H   UNL     1       7.133   3.281   0.392  0.00  0.00    +0.027 HD
ATOM     29  H   UNL     1       7.088   3.011   2.127  0.00  0.00    +0.027 HD
ATOM     30  H   UNL     1       5.249   1.363   1.833  0.00  0.00    +0.028 HD
ATOM     31  H   UNL     1       4.801   2.936   1.198  0.00  0.00    +0.028 HD
ENDBRANCH   7  15
BRANCH   9  32
ATOM     32  N   UNL     1      -1.861  -2.835   0.168  0.00  0.00    -0.248 N 
ATOM     33  C   UNL     1      -3.280  -3.125   0.247  0.00  0.00    +0.048 C 
ATOM     34  C   UNL     1      -3.329  -4.618   0.196  0.00  0.00    -0.006 A 
ATOM     35  C   UNL     1      -2.036  -5.122   0.095  0.00  0.00    +0.042 A 
ATOM     36  C   UNL     1      -1.767  -6.476   0.028  0.00  0.00    -0.049 A 
ATOM     37  C   UNL     1      -2.853  -7.351   0.063  0.00  0.00    -0.060 A 
ATOM     38  C   UNL     1      -4.168  -6.857   0.163  0.00  0.00    -0.050 A 
ATOM     39  C   UNL     1      -4.427  -5.475   0.231  0.00  0.00    +0.060 A 
ATOM     40  C   UNL     1      -1.092  -3.995   0.074  0.00  0.00    +0.253 C 
ATOM     41  O   UNL     1       0.109  -4.172  -0.014  0.00  0.00    -0.270 OA
ATOM     42  H   UNL     1      -3.795  -2.689  -0.615  0.00  0.00    +0.052 HD
ATOM     43  H   UNL     1      -3.682  -2.754   1.195  0.00  0.00    +0.052 HD
ATOM     44  H   UNL     1      -0.746  -6.838  -0.050  0.00  0.00    +0.063 HD
ATOM     45  H   UNL     1      -2.681  -8.425   0.011  0.00  0.00    +0.062 HD
ATOM     46  H   UNL     1      -4.993  -7.569   0.185  0.00  0.00    +0.062 HD
BRANCH  39  47
ATOM     47  C   UNL     1      -5.828  -4.935   0.327  0.00  0.00    +0.418 C 
ATOM     48  F   UNL     1      -6.787  -5.897   0.388  0.00  0.00    -0.166 F 
ATOM     49  F   UNL     1      -6.146  -4.148  -0.738  0.00  0.00    -0.166 F 
ATOM     50  F   UNL     1      -6.003  -4.154   1.428  0.00  0.00    -0.166 F 
ENDBRANCH  39  47
ENDBRANCH   9  32
BRANCH   1  51
ATOM     51  C   UNL     1      -2.488   2.124   0.408  0.00  0.00    -0.012 C 
ATOM     52  H   UNL     1      -1.833   2.958   0.696  0.00  0.00    +0.035 HD
BRANCH  51  53
ATOM     53  C   UNL     1      -3.551   2.019   1.511  0.00  0.00    -0.058 C 
ATOM     54  H   UNL     1      -3.099   1.717   2.462  0.00  0.00    +0.024 HD
ATOM     55  H   UNL     1      -4.042   2.984   1.674  0.00  0.00    +0.024 HD
ATOM     56  H   UNL     1      -4.330   1.292   1.264  0.00  0.00    +0.024 HD
ENDBRANCH  51  53
BRANCH  51  57
ATOM     57  C   UNL     1      -3.101   2.428  -0.974  0.00  0.00    +0.014 C 
ATOM     58  H   UNL     1      -2.349   2.300  -1.763  0.00  0.00    +0.035 HD
ATOM     59  H   UNL     1      -3.897   1.706  -1.201  0.00  0.00    +0.035 HD
BRANCH  57  60
ATOM     60  C   UNL     1      -3.662   3.806  -1.054  0.00  0.00    +0.134 A 
ATOM     61  N   UNL     1      -4.901   4.160  -0.776  0.00  0.00    -0.135 NA
ATOM     62  N   UNL     1      -5.011   5.517  -0.965  0.00  0.00    -0.138 NA
ATOM     63  C   UNL     1      -3.841   5.960  -1.361  0.00  0.00    +0.120 A 
ATOM     64  N   UNL     1      -2.963   4.923  -1.433  0.00  0.00    -0.320 N 
ATOM     65  H   UNL     1      -3.596   6.986  -1.598  0.00  0.00    +0.105 HD
BRANCH  64  66
ATOM     66  C   UNL     1      -1.583   5.004  -1.831  0.00  0.00    +0.014 C 
ATOM     67  H   UNL     1      -0.961   4.590  -1.033  0.00  0.00    +0.046 HD
ATOM     68  H   UNL     1      -1.312   6.050  -2.000  0.00  0.00    +0.046 HD
ATOM     69  H   UNL     1      -1.454   4.435  -2.755  0.00  0.00    +0.046 HD
ENDBRANCH  64  66
ENDBRANCH  57  60
ENDBRANCH  51  57
ENDBRANCH   1  51
TORSDOF 8
