REMARK  Name = 
REMARK  5 active torsions:
REMARK  status: ('A' for Active; 'I' for Inactive)
REMARK    1  A    between atoms: C_2  and  C_19
REMARK    2  A    between atoms: N_3  and  C_4
REMARK    3  A    between atoms: C_9  and  C_11
REMARK    4  A    between atoms: C_11  and  C_12
REMARK    5  A    between atoms: C_24  and  C_25
REMARK                            x       y       z     vdW  Elec       q    Type
REMARK                         _______ _______ _______ _____ _____    ______ ____
ROOT
ATOM      1  C   UNL     1       1.236  -1.683  -1.510  0.00  0.00    +0.039 C 
ATOM      2  C   UNL     1       1.428  -3.160  -1.123  0.00  0.00    -0.032 C 
ATOM      3  C   UNL     1       0.274  -3.725  -0.291  0.00  0.00    -0.035 C 
ATOM      4  C   UNL     1      -0.369  -2.674   0.603  0.00  0.00    +0.015 C 
ATOM      5  N   UNL     1      -0.844  -1.515  -0.151  0.00  0.00    -0.299 N 
ATOM      6  C   UNL     1      -1.701  -0.627   0.497  0.00  0.00    +0.220 C 
ATOM      7  O   UNL     1      -1.957  -0.758   1.696  0.00  0.00    -0.275 OA
ATOM      8  C   UNL     1      -0.254  -1.289  -1.481  0.00  0.00    +0.033 C 
ATOM      9  H   UNL     1       1.625  -1.530  -2.523  0.00  0.00    +0.051 HD
ATOM     10  H   UNL     1       1.514  -3.765  -2.035  0.00  0.00    +0.028 HD
ATOM     11  H   UNL     1       2.371  -3.294  -0.582  0.00  0.00    +0.028 HD
ATOM     12  H   UNL     1      -0.489  -4.124  -0.973  0.00  0.00    +0.028 HD
ATOM     13  H   UNL     1       0.624  -4.573   0.308  0.00  0.00    +0.028 HD
ATOM     14  H   UNL     1       0.350  -2.312   1.348  0.00  0.00    +0.046 HD
ATOM     15  H   UNL     1      -1.211  -3.111   1.153  0.00  0.00    +0.046 HD
ATOM     16  H   UNL     1      -0.369  -0.244  -1.778  0.00  0.00    +0.048 HD
ATOM     17  H   UNL     1      -0.821  -1.899  -2.193  0.00  0.00    +0.048 HD
ENDROOT
BRANCH   1  20
ATOM     18  O   UNL     1       1.988   0.989  -2.035  0.00  0.00    -0.270 OA
ATOM     19  C   UNL     1       2.319   0.475  -0.975  0.00  0.00    +0.246 C 
ATOM     20  N   UNL     1       2.022  -0.821  -0.622  0.00  0.00    -0.307 N 
ATOM     21  H   UNL     1       2.085  -1.096   0.353  0.00  0.00    +0.149 HD
BRANCH  19  22
ATOM     22  C   UNL     1       3.021   1.283   0.040  0.00  0.00    +0.067 A 
ATOM     23  C   UNL     1       2.483   2.539   0.349  0.00  0.00    -0.046 A 
ATOM     24  C   UNL     1       3.090   3.330   1.317  0.00  0.00    -0.043 A 
ATOM     25  C   UNL     1       4.227   2.846   1.937  0.00  0.00    +0.028 A 
ATOM     26  N   UNL     1       4.786   1.650   1.645  0.00  0.00    -0.250 NA
ATOM     27  C   UNL     1       4.192   0.873   0.682  0.00  0.00    +0.156 A 
ATOM     28  H   UNL     1       1.585   2.891  -0.156  0.00  0.00    +0.063 HD
ATOM     29  H   UNL     1       2.679   4.296   1.586  0.00  0.00    +0.063 HD
ATOM     30  H   UNL     1       4.735   3.421   2.707  0.00  0.00    +0.083 HD
BRANCH  27  31
ATOM     31  C   UNL     1       4.836  -0.463   0.348  0.00  0.00    +0.435 C 
ATOM     32  F   UNL     1       4.141  -1.513   0.883  0.00  0.00    -0.164 F 
ATOM     33  F   UNL     1       4.924  -0.713  -0.990  0.00  0.00    -0.164 F 
ATOM     34  F   UNL     1       6.111  -0.596   0.819  0.00  0.00    -0.164 F 
ENDBRANCH  27  31
ENDBRANCH  19  22
ENDBRANCH   1  20
BRANCH   6  35
ATOM     35  C   UNL     1      -2.283   0.508  -0.340  0.00  0.00    +0.049 C 
ATOM     36  H   UNL     1      -2.501   0.148  -1.353  0.00  0.00    +0.041 HD
ATOM     37  H   UNL     1      -1.521   1.293  -0.428  0.00  0.00    +0.041 HD
BRANCH  35  38
ATOM     38  C   UNL     1      -3.557   1.098   0.220  0.00  0.00    -0.039 A 
ATOM     39  C   UNL     1      -3.518   2.213   1.068  0.00  0.00    -0.058 A 
ATOM     40  C   UNL     1      -4.698   2.752   1.583  0.00  0.00    -0.061 A 
ATOM     41  C   UNL     1      -5.926   2.177   1.260  0.00  0.00    -0.062 A 
ATOM     42  C   UNL     1      -5.976   1.060   0.428  0.00  0.00    -0.061 A 
ATOM     43  C   UNL     1      -4.797   0.520  -0.087  0.00  0.00    -0.058 A 
ATOM     44  H   UNL     1      -2.567   2.665   1.340  0.00  0.00    +0.062 HD
ATOM     45  H   UNL     1      -4.659   3.615   2.241  0.00  0.00    +0.062 HD
ATOM     46  H   UNL     1      -6.844   2.594   1.665  0.00  0.00    +0.062 HD
ATOM     47  H   UNL     1      -6.933   0.605   0.187  0.00  0.00    +0.062 HD
ATOM     48  H   UNL     1      -4.852  -0.357  -0.728  0.00  0.00    +0.062 HD
ENDBRANCH  35  38
ENDBRANCH   6  35
TORSDOF 5
