REMARK  Name = 
REMARK  3 active torsions:
REMARK  status: ('A' for Active; 'I' for Inactive)
REMARK    1  A    between atoms: C_3  and  N_4
REMARK    2  A    between atoms: C_6  and  C_16
REMARK    3  A    between atoms: C_16  and  O_18
REMARK                            x       y       z     vdW  Elec       q    Type
REMARK                         _______ _______ _______ _____ _____    ______ ____
ROOT
ATOM      1  N   UNL     1      -0.320  -0.646  -0.030  0.00  0.00    -0.301 N 
ATOM      2  C   UNL     1       0.942  -1.103  -0.349  0.00  0.00    +0.016 C 
ATOM      3  C   UNL     1       2.169  -0.617  -0.135  0.00  0.00    +0.134 C 
ATOM      4  C   UNL     1       2.462   0.580   0.659  0.00  0.00    +0.256 C 
ATOM      5  O   UNL     1       3.566   0.714   1.195  0.00  0.00    -0.270 OA
ATOM      6  N   UNL     1       1.576   1.595   0.801  0.00  0.00    -0.280 N 
ATOM      7  C   UNL     1       0.230   1.758   0.441  0.00  0.00    +0.055 A 
ATOM      8  C   UNL     1      -0.228   3.089   0.557  0.00  0.00    -0.039 A 
ATOM      9  C   UNL     1      -1.542   3.442   0.267  0.00  0.00    -0.060 A 
ATOM     10  C   UNL     1      -2.428   2.462  -0.138  0.00  0.00    -0.060 A 
ATOM     11  C   UNL     1      -1.993   1.137  -0.239  0.00  0.00    -0.039 A 
ATOM     12  C   UNL     1      -0.663   0.739   0.052  0.00  0.00    +0.055 A 
ATOM     13  H   UNL     1       0.873  -2.062  -0.866  0.00  0.00    +0.079 HD
ATOM     14  H   UNL     1       2.022   2.382   1.258  0.00  0.00    +0.155 HD
ATOM     15  H   UNL     1       0.451   3.880   0.872  0.00  0.00    +0.064 HD
ATOM     16  H   UNL     1      -1.866   4.475   0.356  0.00  0.00    +0.062 HD
ATOM     17  H   UNL     1      -3.459   2.715  -0.374  0.00  0.00    +0.062 HD
ATOM     18  H   UNL     1      -2.731   0.408  -0.564  0.00  0.00    +0.064 HD
ENDROOT
BRANCH   1  21
ATOM     19  C   UNL     1      -1.355  -2.962   0.606  0.00  0.00    -0.032 C 
ATOM     20  C   UNL     1      -2.380  -1.927   0.947  0.00  0.00    -0.032 C 
ATOM     21  C   UNL     1      -1.398  -1.665  -0.168  0.00  0.00    +0.028 C 
ATOM     22  H   UNL     1      -0.547  -3.119   1.312  0.00  0.00    +0.028 HD
ATOM     23  H   UNL     1      -1.685  -3.862   0.102  0.00  0.00    +0.028 HD
ATOM     24  H   UNL     1      -3.411  -2.123   0.678  0.00  0.00    +0.028 HD
ATOM     25  H   UNL     1      -2.257  -1.383   1.876  0.00  0.00    +0.028 HD
ATOM     26  H   UNL     1      -1.769  -1.731  -1.189  0.00  0.00    +0.050 HD
ENDBRANCH   1  21
BRANCH   3  27
ATOM     27  C   UNL     1       3.267  -1.445  -0.666  0.00  0.00    +0.343 C 
ATOM     28  O   UNL     1       3.295  -2.663  -0.722  0.00  0.00    -0.245 OA
BRANCH  27  29
ATOM     29  O   UNL     1       4.256  -0.707  -1.200  0.00  0.00    -0.477 OA
ATOM     30  H   UNL     1       4.922  -1.362  -1.491  0.00  0.00    +0.295 HD
ENDBRANCH  27  29
ENDBRANCH   3  27
TORSDOF 3
