REMARK  Name = 
REMARK  9 active torsions:
REMARK  status: ('A' for Active; 'I' for Inactive)
REMARK    1  A    between atoms: C_1  and  C_2
REMARK    2  A    between atoms: N_6  and  C_7
REMARK    3  A    between atoms: C_7  and  C_8
REMARK    4  A    between atoms: C_12  and  C_13
REMARK    5  A    between atoms: N_19  and  C_20
REMARK    6  A    between atoms: C_24  and  C_25
REMARK    7  A    between atoms: C_25  and  C_26
REMARK    8  A    between atoms: N_30  and  C_31
REMARK    9  A    between atoms: C_33  and  C_34
REMARK                            x       y       z     vdW  Elec       q    Type
REMARK                         _______ _______ _______ _____ _____    ______ ____
ROOT
ATOM      1  C   UNL     1       3.622  -1.405   0.077  0.00  0.00    -0.032 A 
ATOM      2  C   UNL     1       2.357  -1.250  -0.505  0.00  0.00    -0.045 A 
ATOM      3  C   UNL     1       1.271  -1.099   0.339  0.00  0.00    +0.043 A 
ATOM      4  C   UNL     1       1.385  -1.104   1.724  0.00  0.00    -0.006 A 
ATOM      5  C   UNL     1       2.625  -1.269   2.333  0.00  0.00    +0.061 A 
ATOM      6  C   UNL     1       3.742  -1.420   1.489  0.00  0.00    -0.045 A 
ATOM      7  C   UNL     1       0.036  -0.914   2.336  0.00  0.00    +0.046 C 
ATOM      8  N   UNL     1      -0.848  -0.773   1.187  0.00  0.00    -0.263 N 
ATOM      9  C   UNL     1      -0.141  -0.904  -0.014  0.00  0.00    +0.251 C 
ATOM     10  O   UNL     1      -0.512  -0.892  -1.172  0.00  0.00    -0.270 OA
ATOM     11  H   UNL     1       2.216  -1.235  -1.582  0.00  0.00    +0.063 HD
ATOM     12  H   UNL     1       4.737  -1.537   1.925  0.00  0.00    +0.063 HD
ATOM     13  H   UNL     1       0.007   0.000   2.939  0.00  0.00    +0.052 HD
ATOM     14  H   UNL     1      -0.252  -1.796   2.917  0.00  0.00    +0.052 HD
ENDROOT
BRANCH   8  15
ATOM     15  C   UNL     1      -2.245  -0.544   1.327  0.00  0.00    +0.037 A 
ATOM     16  C   UNL     1      -2.845  -0.544   2.591  0.00  0.00    -0.040 A 
ATOM     17  C   UNL     1      -4.217  -0.334   2.731  0.00  0.00    -0.060 A 
ATOM     18  C   UNL     1      -5.015  -0.120   1.608  0.00  0.00    -0.058 A 
ATOM     19  C   UNL     1      -4.473  -0.095   0.311  0.00  0.00    -0.032 A 
ATOM     20  C   UNL     1      -3.073  -0.307   0.217  0.00  0.00    -0.036 A 
ATOM     21  H   UNL     1      -2.271  -0.716   3.496  0.00  0.00    +0.064 HD
ATOM     22  H   UNL     1      -4.667  -0.347   3.721  0.00  0.00    +0.062 HD
ATOM     23  H   UNL     1      -6.081   0.032   1.758  0.00  0.00    +0.062 HD
ATOM     24  H   UNL     1      -2.646  -0.266  -0.784  0.00  0.00    +0.064 HD
BRANCH  19  25
ATOM     25  C   UNL     1      -5.359   0.159  -1.015  0.00  0.00    +0.056 C 
ATOM     26  C   UNL     1      -6.879  -0.245  -1.013  0.00  0.00    -0.034 C 
ATOM     27  C   UNL     1      -6.463  -1.621  -1.582  0.00  0.00    -0.041 C 
ATOM     28  C   UNL     1      -5.216  -0.915  -2.163  0.00  0.00    -0.034 C 
ATOM     29  H   UNL     1      -7.506   0.346  -1.694  0.00  0.00    +0.028 HD
ATOM     30  H   UNL     1      -7.389  -0.289  -0.046  0.00  0.00    +0.028 HD
ATOM     31  H   UNL     1      -6.204  -2.337  -0.789  0.00  0.00    +0.030 HD
ATOM     32  H   UNL     1      -4.307  -1.523  -2.160  0.00  0.00    +0.028 HD
ATOM     33  H   UNL     1      -5.359  -0.529  -3.181  0.00  0.00    +0.028 HD
BRANCH  25  34
ATOM     34  C   UNL     1      -5.135   1.635  -1.540  0.00  0.00    +0.144 A 
ATOM     35  N   UNL     1      -4.419   1.927  -2.609  0.00  0.00    -0.134 NA
ATOM     36  N   UNL     1      -4.449   3.290  -2.784  0.00  0.00    -0.138 NA
ATOM     37  C   UNL     1      -5.177   3.797  -1.816  0.00  0.00    +0.120 A 
ATOM     38  N   UNL     1      -5.614   2.798  -1.002  0.00  0.00    -0.320 N 
ATOM     39  H   UNL     1      -5.397   4.845  -1.669  0.00  0.00    +0.105 HD
BRANCH  38  40
ATOM     40  C   UNL     1      -6.410   2.967   0.181  0.00  0.00    +0.014 C 
ATOM     41  H   UNL     1      -7.267   2.292   0.139  0.00  0.00    +0.046 HD
ATOM     42  H   UNL     1      -6.771   3.997   0.233  0.00  0.00    +0.046 HD
ATOM     43  H   UNL     1      -5.790   2.751   1.054  0.00  0.00    +0.046 HD
ENDBRANCH  38  40
ENDBRANCH  25  34
BRANCH  27  44
ATOM     44  C   UNL     1      -7.413  -2.252  -2.581  0.00  0.00    -0.062 C 
ATOM     45  H   UNL     1      -6.966  -3.146  -3.024  0.00  0.00    +0.023 HD
ATOM     46  H   UNL     1      -8.345  -2.550  -2.090  0.00  0.00    +0.023 HD
ATOM     47  H   UNL     1      -7.666  -1.562  -3.391  0.00  0.00    +0.023 HD
ENDBRANCH  27  44
ENDBRANCH  19  25
ENDBRANCH   8  15
BRANCH   5  48
ATOM     48  C   UNL     1       2.764  -1.264   3.831  0.00  0.00    +0.418 C 
ATOM     49  F   UNL     1       2.425  -0.064   4.376  0.00  0.00    -0.166 F 
ATOM     50  F   UNL     1       4.020  -1.541   4.275  0.00  0.00    -0.166 F 
ATOM     51  F   UNL     1       1.946  -2.180   4.425  0.00  0.00    -0.166 F 
ENDBRANCH   5  48
BRANCH   1  52
ATOM     52  C   UNL     1       4.853  -1.565  -0.795  0.00  0.00    +0.024 C 
ATOM     53  H   UNL     1       4.585  -1.522  -1.858  0.00  0.00    +0.048 HD
ATOM     54  H   UNL     1       5.224  -2.582  -0.610  0.00  0.00    +0.048 HD
BRANCH  52  59
ATOM     55  C   UNL     1       6.568   1.826  -0.533  0.00  0.00    -0.031 C 
ATOM     56  C   UNL     1       7.950   1.427  -1.063  0.00  0.00    -0.048 C 
ATOM     57  C   UNL     1       8.302  -0.016  -0.712  0.00  0.00    -0.040 C 
ATOM     58  C   UNL     1       7.177  -0.979  -1.093  0.00  0.00    -0.001 C 
ATOM     59  N   UNL     1       5.901  -0.579  -0.481  0.00  0.00    -0.298 NA
ATOM     60  C   UNL     1       5.520   0.773  -0.933  0.00  0.00    +0.002 C 
ATOM     61  H   UNL     1       6.290   2.781  -0.999  0.00  0.00    +0.031 HD
ATOM     62  H   UNL     1       7.956   1.533  -2.156  0.00  0.00    +0.027 HD
ATOM     63  H   UNL     1       8.722   2.104  -0.679  0.00  0.00    +0.027 HD
ATOM     64  H   UNL     1       8.508  -0.097   0.362  0.00  0.00    +0.028 HD
ATOM     65  H   UNL     1       9.223  -0.304  -1.231  0.00  0.00    +0.028 HD
ATOM     66  H   UNL     1       7.460  -1.979  -0.745  0.00  0.00    +0.043 HD
ATOM     67  H   UNL     1       7.088  -1.029  -2.187  0.00  0.00    +0.043 HD
ATOM     68  H   UNL     1       4.559   1.070  -0.496  0.00  0.00    +0.043 HD
ATOM     69  H   UNL     1       5.388   0.787  -2.024  0.00  0.00    +0.043 HD
BRANCH  55  70
ATOM     70  C   UNL     1       6.588   2.050   0.983  0.00  0.00    -0.061 C 
ATOM     71  H   UNL     1       5.605   2.378   1.334  0.00  0.00    +0.023 HD
ATOM     72  H   UNL     1       6.855   1.144   1.535  0.00  0.00    +0.023 HD
ATOM     73  H   UNL     1       7.311   2.829   1.247  0.00  0.00    +0.023 HD
ENDBRANCH  55  70
ENDBRANCH  52  59
ENDBRANCH   1  52
TORSDOF 9
