REMARK  Name = 
REMARK  5 active torsions:
REMARK  status: ('A' for Active; 'I' for Inactive)
REMARK    1  A    between atoms: C_1  and  N_2
REMARK    2  A    between atoms: N_2  and  C_3
REMARK    3  A    between atoms: N_2  and  C_4
REMARK    4  A    between atoms: C_7  and  C_8
REMARK    5  A    between atoms: C_14  and  C_16
REMARK                            x       y       z     vdW  Elec       q    Type
REMARK                         _______ _______ _______ _____ _____    ______ ____
ROOT
ATOM      1  C   UNL     1       1.094   1.370   1.939  0.00  0.00    +0.247 C 
ATOM      2  O   UNL     1       1.317   1.846   3.049  0.00  0.00    -0.270 OA
ATOM      3  N   UNL     1      -0.161   1.396   1.338  0.00  0.00    -0.295 N 
ATOM      4  C   UNL     1      -1.233   2.124   2.022  0.00  0.00    +0.031 C 
ATOM      5  C   UNL     1      -2.405   2.461   1.094  0.00  0.00    +0.031 C 
ATOM      6  N   UNL     1      -2.944   1.281   0.408  0.00  0.00    -0.294 N 
ATOM      7  C   UNL     1      -4.290   1.285   0.060  0.00  0.00    +0.249 C 
ATOM      8  O   UNL     1      -5.054   2.218   0.295  0.00  0.00    -0.270 OA
ATOM      9  C   UNL     1      -2.030   0.143   0.241  0.00  0.00    +0.031 C 
ATOM     10  C   UNL     1      -0.555   0.569   0.190  0.00  0.00    +0.031 C 
ATOM     11  H   UNL     1      -0.827   3.040   2.465  0.00  0.00    +0.048 HD
ATOM     12  H   UNL     1      -1.577   1.483   2.843  0.00  0.00    +0.048 HD
ATOM     13  H   UNL     1      -2.071   3.149   0.309  0.00  0.00    +0.048 HD
ATOM     14  H   UNL     1      -3.195   2.964   1.662  0.00  0.00    +0.048 HD
ATOM     15  H   UNL     1      -2.274  -0.422  -0.660  0.00  0.00    +0.048 HD
ATOM     16  H   UNL     1      -2.197  -0.517   1.100  0.00  0.00    +0.048 HD
ATOM     17  H   UNL     1       0.077  -0.322   0.130  0.00  0.00    +0.048 HD
ATOM     18  H   UNL     1      -0.383   1.175  -0.707  0.00  0.00    +0.048 HD
ENDROOT
BRANCH   7  19
ATOM     19  C   UNL     1      -4.866   0.093  -0.578  0.00  0.00    +0.072 A 
ATOM     20  C   UNL     1      -5.732  -0.721   0.158  0.00  0.00    -0.047 A 
ATOM     21  C   UNL     1      -6.312  -1.835  -0.452  0.00  0.00    -0.061 A 
ATOM     22  C   UNL     1      -6.037  -2.124  -1.792  0.00  0.00    -0.059 A 
ATOM     23  C   UNL     1      -5.186  -1.296  -2.527  0.00  0.00    -0.026 A 
ATOM     24  C   UNL     1      -4.609  -0.184  -1.917  0.00  0.00    +0.135 A 
ATOM     25  F   UNL     1      -3.788   0.596  -2.636  0.00  0.00    -0.205 F 
ATOM     26  H   UNL     1      -5.961  -0.481   1.193  0.00  0.00    +0.063 HD
ATOM     27  H   UNL     1      -6.988  -2.473   0.114  0.00  0.00    +0.062 HD
ATOM     28  H   UNL     1      -6.494  -2.989  -2.265  0.00  0.00    +0.062 HD
ATOM     29  H   UNL     1      -4.974  -1.506  -3.571  0.00  0.00    +0.065 HD
ENDBRANCH   7  19
BRANCH   1  33
ATOM     30  C   UNL     1       4.424  -0.480  -0.116  0.00  0.00    +0.029 A 
ATOM     31  C   UNL     1       4.050  -0.841   1.193  0.00  0.00    -0.040 A 
ATOM     32  C   UNL     1       2.976  -0.237   1.860  0.00  0.00    -0.048 A 
ATOM     33  C   UNL     1       2.221   0.738   1.216  0.00  0.00    +0.037 A 
ATOM     34  C   UNL     1       2.564   1.134  -0.073  0.00  0.00    -0.048 A 
ATOM     35  C   UNL     1       3.642   0.520  -0.727  0.00  0.00    -0.040 A 
ATOM     36  H   UNL     1       4.593  -1.607   1.740  0.00  0.00    +0.064 HD
ATOM     37  H   UNL     1       2.734  -0.533   2.878  0.00  0.00    +0.063 HD
ATOM     38  H   UNL     1       2.010   1.922  -0.576  0.00  0.00    +0.063 HD
ATOM     39  H   UNL     1       3.855   0.856  -1.737  0.00  0.00    +0.064 HD
BRANCH  30  40
ATOM     40  N   UNL     1       5.484  -1.104  -0.786  0.00  0.00    -0.336 N 
BRANCH  40  41
ATOM     41  C   UNL     1       6.422  -1.924  -0.020  0.00  0.00    +0.000 C 
ATOM     42  H   UNL     1       6.930  -1.329   0.747  0.00  0.00    +0.043 HD
ATOM     43  H   UNL     1       5.915  -2.775   0.447  0.00  0.00    +0.043 HD
ATOM     44  H   UNL     1       7.193  -2.356  -0.669  0.00  0.00    +0.043 HD
ENDBRANCH  40  41
BRANCH  40  45
ATOM     45  C   UNL     1       6.043  -0.462  -1.976  0.00  0.00    +0.000 C 
ATOM     46  H   UNL     1       6.418   0.541  -1.743  0.00  0.00    +0.043 HD
ATOM     47  H   UNL     1       5.301  -0.401  -2.779  0.00  0.00    +0.043 HD
ATOM     48  H   UNL     1       6.879  -1.040  -2.385  0.00  0.00    +0.043 HD
ENDBRANCH  40  45
ENDBRANCH  30  40
ENDBRANCH   1  33
TORSDOF 5
