TE01
 OpenBabel07182316283D

 24 26  0  0  1  0  0  0  0  0999 V2000
    7.7720    8.9300   17.5130 N   0  0  0  0  0  0  0  0  0  0  0  0
    7.7560    7.5300   17.9010 C   0  0  0  0  0  0  0  0  0  0  0  0
    8.6210    7.2500   18.8070 O   0  0  0  0  0  0  0  0  0  0  0  0
    6.9910    9.1600   16.8160 H   0  0  0  0  0  0  0  0  0  0  0  0
    8.6330    9.9520   17.9140 C   0  0  2  0  0  3  0  0  0  0  0  0
    9.9620   11.2020   19.3110 C   0  0  2  0  0  3  0  0  0  0  0  0
    9.1120   12.1850   18.5060 C   0  0  0  0  0  2  0  0  0  0  0  0
    9.0170    9.9720   19.4050 C   0  0  0  0  0  2  0  0  0  0  0  0
    8.1030   11.3120   17.7380 C   0  0  0  0  0  2  0  0  0  0  0  0
   10.3700   11.7210   20.5960 C   0  0  0  0  0  0  0  0  0  0  0  0
   11.5930   12.1130   20.7070 O   0  0  0  0  0  0  0  0  0  0  0  0
    9.4980   11.7990   21.6560 O   0  0  0  0  0  1  0  0  0  0  0  0
    6.9030    6.6320   17.3250 N   0  0  0  0  0  0  0  0  0  0  0  0
    7.1680    5.2010   17.0300 C   0  0  0  0  0  2  0  0  0  0  0  0
    5.4730    6.6240   17.0140 C   0  0  0  0  0  2  0  0  0  0  0  0
    6.3490    4.7770   18.3490 C   0  0  0  0  0  2  0  0  0  0  0  0
    5.0890    5.6220   18.0450 C   0  0  2  0  0  3  0  0  0  0  0  0
    3.8790    4.9270   18.1980 C   0  0  0  0  0  0  0  0  0  0  0  0
    3.6350    3.8350   17.3330 C   0  0  0  0  0  3  0  0  0  0  0  0
    2.9420    5.0810   19.1770 C   0  0  0  0  0  0  0  0  0  0  0  0
    2.5630    3.0050   17.4520 C   0  0  0  0  0  3  0  0  0  0  0  0
    1.8520    4.2600   19.3170 C   0  0  0  0  0  3  0  0  0  0  0  0
    3.0190    6.1230   20.0570 F   0  0  0  0  0  0  0  0  0  0  0  0
    1.6340    3.2000   18.4560 C   0  0  0  0  0  3  0  0  0  0  0  0
  1  2  1  0  0  0  0
  2  3  2  0  0  0  0
  4  1  1  0  0  0  0
  5  1  1  1  0  0  0
  5  8  1  0  0  0  0
  6  8  1  0  0  0  0
  6 10  1  1  0  0  0
  7  6  1  0  0  0  0
  9  5  1  0  0  0  0
  9  7  1  0  0  0  0
 10 11  2  0  0  0  0
 10 12  1  0  0  0  0
 13  2  1  0  0  0  0
 14 13  1  0  0  0  0
 14 16  1  0  0  0  0
 15 13  1  0  0  0  0
 15 17  1  0  0  0  0
 17 18  1  6  0  0  0
 17 16  1  0  0  0  0
 18 20  1  0  0  0  0
 19 21  1  0  0  0  0
 19 18  2  0  0  0  0
 20 22  2  0  0  0  0
 20 23  1  0  0  0  0
 21 24  2  0  0  0  0
 24 22  1  0  0  0  0
M  END
>  <MODEL>
1

>  <REMARK>
 VINA RESULT:    -5.266      0.000      0.000
 INTER + INTRA:          -6.708
 INTER:                  -6.497
 INTRA:                  -0.211
 UNBOUND:                -0.211
 SMILES O=C([O-])[C@@H]1CC[C@H](NC(=O)N2CC[C@H](c3ccccc3F)C2)C1
 SMILES IDX 8 1 9 2 10 3 7 5 4 6 5 7 23 8 6 9 2 10 1 11 3 12 11 13 12 14
 SMILES IDX 22 15 13 16 14 17 15 18 16 19 20 20 17 21 19 22 21 23 18 24
 H PARENT 8 4
 Flexibility Score: inf

>  <TORSDO>
F 4

$$$$
TE02
 OpenBabel07182316283D

 26 28  0  0  1  0  0  0  0  0999 V2000
    3.8160    5.8360   18.6840 C   0  0  0  0  0  0  0  0  0  0  0  0
    3.9460    6.6190   17.5530 C   0  0  0  0  0  3  0  0  0  0  0  0
    3.1960    7.7660   17.3970 C   0  0  0  0  0  3  0  0  0  0  0  0
    2.2870    8.1900   18.3450 C   0  0  0  0  0  0  0  0  0  0  0  0
    2.1680    7.4020   19.4650 C   0  0  0  0  0  3  0  0  0  0  0  0
    2.9220    6.2410   19.6310 C   0  0  0  0  0  3  0  0  0  0  0  0
    4.6480    4.6190   18.7870 C   0  0  0  0  0  2  0  0  0  0  0  0
    5.5590    4.6270   17.6320 N   0  0  0  0  0  0  0  0  0  0  0  0
    6.3150    4.0790   14.1510 C   0  0  0  0  0  1  0  0  0  0  0  0
    6.3260    4.4020   15.6000 C   0  0  0  0  0  0  0  0  0  0  0  0
    7.3380    4.8700   16.4030 C   0  0  0  0  0  3  0  0  0  0  0  0
    5.2510    4.2650   16.3910 N   0  0  0  0  0  0  0  0  0  0  0  0
    6.8440    5.0110   17.6950 C   0  0  0  0  0  0  0  0  0  0  0  0
    7.6010    5.4890   18.8830 C   0  0  0  0  0  1  0  0  0  0  0  0
    1.5150    9.4250   18.1270 C   0  0  0  0  0  0  0  0  0  0  0  0
    1.9230   10.2180   17.2670 O   0  0  0  0  0  0  0  0  0  0  0  0
    0.3360    9.7580   18.8370 N   0  0  0  0  0  0  0  0  0  0  0  0
    0.0600    8.9900   19.5460 H   0  0  0  0  0  0  0  0  0  0  0  0
   -0.4690   10.9130   18.7300 C   0  0  0  0  0  2  0  0  0  0  0  0
   -1.8230   10.8780   18.2170 C   0  0  2  0  0  3  0  0  0  0  0  0
   -2.1540   10.5380   16.8150 C   0  0  0  0  0  2  0  0  0  0  0  0
   -2.5490   12.1660   18.3260 N   0  0  0  0  0  4  0  0  0  0  0  0
   -3.6980   10.8090   16.8110 C   0  0  0  0  0  2  0  0  0  0  0  0
   -3.8670   11.7490   17.9770 C   0  0  0  0  0  2  0  0  0  0  0  0
   -2.4270   12.6730   19.6790 C   0  0  0  0  0  1  0  0  0  0  0  0
   -2.0950   12.7880   17.6230 H   0  0  0  0  0  0  0  0  0  0  0  0
  1  7  1  0  0  0  0
  1  6  1  0  0  0  0
  2  1  2  0  0  0  0
  3  2  1  0  0  0  0
  3  4  2  0  0  0  0
  4  5  1  0  0  0  0
  5  6  2  0  0  0  0
  8 13  1  0  0  0  0
  8  7  1  0  0  0  0
  9 10  1  0  0  0  0
 10 12  2  0  0  0  0
 10 11  1  0  0  0  0
 11 13  2  0  0  0  0
 12  8  1  0  0  0  0
 13 14  1  0  0  0  0
 15  4  1  0  0  0  0
 15 17  1  0  0  0  0
 16 15  2  0  0  0  0
 17 18  1  0  0  0  0
 19 17  1  0  0  0  0
 20 22  1  0  0  0  0
 20 19  1  6  0  0  0
 21 20  1  0  0  0  0
 22 25  1  0  0  0  0
 23 21  1  0  0  0  0
 23 24  1  0  0  0  0
 24 22  1  0  0  0  0
 26 22  1  0  0  0  0
M  END
>  <MODEL>
1

>  <REMARK>
 VINA RESULT:    -5.984      0.000      0.000
 INTER + INTRA:          -7.947
 INTER:                  -7.733
 INTRA:                  -0.214
 UNBOUND:                -0.214
 SMILES Cc1cc(C)n(Cc2ccc(C(=O)NC[C@@H]3CCC[N@H+]3C)cc2)n1
 SMILES IDX 8 1 9 2 10 3 11 4 22 5 23 6 7 7 6 8 1 9 2 10 3 11 24 12 4 13
 SMILES IDX 5 14 12 15 13 16 14 17 15 19 16 20 17 21 20 22 18 23 19 24
 SMILES IDX 21 25
 H PARENT 14 18 20 26
 Flexibility Score: inf

>  <TORSDO>
F 5

$$$$
TE03
 OpenBabel07182316283D

 23 25  0  0  1  0  0  0  0  0999 V2000
   -2.1470   11.9770   19.1060 C   0  0  1  0  0  3  0  0  0  0  0  0
   -1.1620   12.3520   18.0120 C   0  0  0  0  0  2  0  0  0  0  0  0
    0.2560   11.9840   18.4310 C   0  0  0  0  0  2  0  0  0  0  0  0
    0.2820   10.9620   19.4120 N   0  0  0  0  0  0  0  0  0  0  0  0
   -0.5110   11.0670   20.6550 C   0  0  0  0  0  2  0  0  0  0  0  0
   -1.4510   12.2430   20.4240 C   0  0  0  0  0  2  0  0  0  0  0  0
   -3.3410   12.8140   18.9940 N   0  0  0  0  0  0  0  0  0  0  0  0
   -4.5350   11.0650   18.1250 O   0  0  0  0  0  0  0  0  0  0  0  0
   -4.5310   12.2680   18.4780 C   0  0  0  0  0  0  0  0  0  0  0  0
   -3.3170   13.8090   19.2920 H   0  0  0  0  0  0  0  0  0  0  0  0
   -5.7410   13.0440   18.3430 C   0  0  0  0  0  0  0  0  0  0  0  0
   -6.3430   13.0930   17.0930 C   0  0  0  0  0  3  0  0  0  0  0  0
   -6.3270   13.7370   19.3880 C   0  0  0  0  0  3  0  0  0  0  0  0
   -7.4930   13.7940   16.8340 C   0  0  0  0  0  3  0  0  0  0  0  0
   -7.4820   14.4300   19.0920 C   0  0  0  0  0  3  0  0  0  0  0  0
   -8.0390   14.4580   17.8710 N   0  0  0  0  0  0  0  0  0  0  0  0
    1.0420    9.7710   19.2860 C   0  0  0  0  0  0  0  0  0  0  0  0
    1.1950    8.9090   20.3640 C   0  0  0  0  0  3  0  0  0  0  0  0
    1.6250    9.4520   18.0950 C   0  0  0  0  0  3  0  0  0  0  0  0
    1.9100    7.7520   20.2650 C   0  0  0  0  0  3  0  0  0  0  0  0
    2.3550    8.2610   18.0110 C   0  0  0  0  0  3  0  0  0  0  0  0
    2.4990    7.4160   19.0830 C   0  0  0  0  0  0  0  0  0  0  0  0
    3.4190    5.9200   18.9760 Cl  0  0  0  0  0  0  0  0  0  0  0  0
  1  7  1  6  0  0  0
  1  6  1  0  0  0  0
  2  3  1  0  0  0  0
  2  1  1  0  0  0  0
  3  4  1  0  0  0  0
  4  5  1  0  0  0  0
  6  5  1  0  0  0  0
  7 10  1  0  0  0  0
  8  9  2  0  0  0  0
  9  7  1  0  0  0  0
 11  9  1  0  0  0  0
 11 13  1  0  0  0  0
 12 11  2  0  0  0  0
 14 12  1  0  0  0  0
 14 16  2  0  0  0  0
 15 13  2  0  0  0  0
 16 15  1  0  0  0  0
 17  4  1  0  0  0  0
 17 18  1  0  0  0  0
 19 17  2  0  0  0  0
 20 18  2  0  0  0  0
 21 19  1  0  0  0  0
 21 22  2  0  0  0  0
 22 20  1  0  0  0  0
 23 22  1  0  0  0  0
M  END
>  <MODEL>
1

>  <REMARK>
 VINA RESULT:    -4.176      0.000      0.000
 INTER + INTRA:          -5.750
 INTER:                  -4.909
 INTRA:                  -0.841
 UNBOUND:                -0.841
 SMILES O=C(NC1CCN(c2ccc(Cl)cc2)CC1)c1ccncc1
 SMILES IDX 4 1 5 2 6 3 7 4 15 5 16 6 3 7 1 8 2 9 17 11 18 12 22 13
 SMILES IDX 19 14 21 15 20 16 8 17 9 18 14 19 10 20 13 21 11 22 12 23
 H PARENT 3 10
 Flexibility Score: inf

>  <TORSDO>
F 3

$$$$
TE04
 OpenBabel07182316283D

 26 28  0  0  1  0  0  0  0  0999 V2000
    3.0780    6.6780   18.9160 C   0  0  1  0  0  3  0  0  0  0  0  0
    2.4260    7.3760   17.7150 C   0  0  0  0  0  2  0  0  0  0  0  0
    2.4770    8.8630   18.1010 C   0  0  0  0  0  2  0  0  0  0  0  0
    1.5740    8.9940   19.2220 N   0  0  0  0  0  0  0  0  0  0  0  0
    1.8540    8.1990   20.4120 C   0  0  0  0  0  2  0  0  0  0  0  0
    2.0750    6.7390   20.0190 C   0  0  0  0  0  2  0  0  0  0  0  0
    3.5230    5.3200   18.5650 C   0  0  0  0  0  0  0  0  0  0  0  0
    2.6380    4.4060   18.6540 O   0  0  0  0  0  0  0  0  0  0  0  0
    4.8230    4.9600   18.1480 N   0  0  0  0  0  0  0  0  0  0  0  0
    7.0410    7.1020   17.4310 C   0  0  0  0  0  1  0  0  0  0  0  0
    7.1430    5.7470   18.0530 C   0  0  2  0  0  3  0  0  0  0  0  0
    7.4100    4.6440   17.0730 C   0  0  0  0  0  2  0  0  0  0  0  0
    5.9570    5.4020   18.9310 C   0  0  0  0  0  2  0  0  0  0  0  0
    6.2080    4.5450   16.1560 C   0  0  0  0  0  2  0  0  0  0  0  0
    4.9740    4.1670   16.9440 C   0  0  0  0  0  2  0  0  0  0  0  0
    0.4630    9.8480   19.1420 C   0  0  0  0  0  0  0  0  0  0  0  0
    0.1430   10.7520   20.1240 C   0  0  0  0  0  3  0  0  0  0  0  0
   -0.4010    9.8140   18.0490 C   0  0  0  0  0  3  0  0  0  0  0  0
   -0.9650   11.5770   20.0400 C   0  0  0  0  0  3  0  0  0  0  0  0
   -1.5180   10.6530   17.9740 C   0  0  0  0  0  0  0  0  0  0  0  0
   -1.7570   11.5000   18.9700 N   0  0  0  0  0  0  0  0  0  0  0  0
   -2.4180   10.6190   16.8370 C   0  0  0  0  0  0  0  0  0  0  0  0
   -2.4430   11.6860   15.9130 N   0  0  0  0  0  0  0  0  0  0  0  0
   -3.1830    9.6430   16.6620 O   0  0  0  0  0  0  0  0  0  0  0  0
   -2.2800   11.5260   14.9160 H   0  0  0  0  0  0  0  0  0  0  0  0
   -2.6320   12.6390   16.2930 H   0  0  0  0  0  0  0  0  0  0  0  0
  1  7  1  6  0  0  0
  1  6  1  0  0  0  0
  2  3  1  0  0  0  0
  2  1  1  0  0  0  0
  3  4  1  0  0  0  0
  4  5  1  0  0  0  0
  6  5  1  0  0  0  0
  7  8  2  0  0  0  0
  9  7  1  0  0  0  0
  9 13  1  0  0  0  0
 11 10  1  6  0  0  0
 11 13  1  0  0  0  0
 12 11  1  0  0  0  0
 14 15  1  0  0  0  0
 14 12  1  0  0  0  0
 15  9  1  0  0  0  0
 16  4  1  0  0  0  0
 16 17  1  0  0  0  0
 18 16  2  0  0  0  0
 19 17  2  0  0  0  0
 20 18  1  0  0  0  0
 20 21  2  0  0  0  0
 21 19  1  0  0  0  0
 22 20  1  0  0  0  0
 23 26  1  0  0  0  0
 23 22  1  0  0  0  0
 24 22  2  0  0  0  0
 25 23  1  0  0  0  0
M  END
>  <MODEL>
1

>  <REMARK>
 VINA RESULT:    -5.080      0.000      0.000
 INTER + INTRA:          -7.335
 INTER:                  -6.268
 INTRA:                  -1.067
 UNBOUND:                -1.067
 SMILES C[C@@H]1CCCN(C(=O)C2CCN(c3ccnc(C(N)=O)c3)CC2)C1
 SMILES IDX 9 1 10 2 11 3 12 4 22 5 23 6 7 7 8 8 6 9 1 10 2 11 3 12
 SMILES IDX 24 13 4 14 5 15 13 16 14 17 21 18 15 19 17 20 16 21 18 22
 SMILES IDX 19 23 20 24
 H PARENT 19 25 19 26
 Flexibility Score: inf

>  <TORSDO>
F 4

$$$$
TE05
 OpenBabel07182316283D

 26 28  0  0  1  0  0  0  0  0999 V2000
    1.8800    7.6530   20.3370 C   0  0  0  0  0  0  0  0  0  0  0  0
    2.5740    7.9460   19.2890 O   0  0  0  0  0  0  0  0  0  0  0  0
    1.9530    6.3180   20.7270 N   0  0  0  0  0  0  0  0  0  0  0  0
    1.4040    6.0720   21.6140 H   0  0  0  0  0  0  0  0  0  0  0  0
    1.1380    8.7370   20.9500 C   0  0  0  0  0  0  0  0  0  0  0  0
   -0.3050   10.7780   22.2670 C   0  0  0  0  0  0  0  0  0  0  0  0
    0.2900    9.7430   22.9600 C   0  0  0  0  0  3  0  0  0  0  0  0
   -0.1520   10.7530   20.9030 C   0  0  0  0  0  3  0  0  0  0  0  0
    0.9930    8.7510   22.3220 C   0  0  0  0  0  3  0  0  0  0  0  0
    0.5680    9.7350   20.2420 C   0  0  0  0  0  0  0  0  0  0  0  0
    0.6510    9.8330   18.9120 F   0  0  0  0  0  0  0  0  0  0  0  0
   -1.0480   11.8290   22.9400 C   0  0  0  0  0  0  0  0  0  0  0  0
   -2.2160   11.5540   23.3580 O   0  0  0  0  0  1  0  0  0  0  0  0
   -0.5710   13.0940   23.1510 O   0  0  0  0  0  0  0  0  0  0  0  0
    2.6370    5.2120   20.1600 C   0  0  0  0  0  2  0  0  0  0  0  0
    2.7520    5.0310   18.7110 C   0  0  2  0  0  3  0  0  0  0  0  0
    1.8220    4.2110   17.9320 C   0  0  0  0  0  2  0  0  0  0  0  0
    4.0600    4.5270   18.2970 N   0  0  0  0  0  0  0  0  0  0  0  0
    2.4650    2.8750   17.7680 C   0  0  0  0  0  2  0  0  0  0  0  0
    3.9180    3.1090   18.1390 C   0  0  0  0  0  2  0  0  0  0  0  0
    5.1980    5.3150   18.1050 C   0  0  0  0  0  0  0  0  0  0  0  0
    5.3110    6.3190   17.1790 C   0  0  0  0  0  3  0  0  0  0  0  0
    6.3000    5.0530   18.9240 C   0  0  0  0  0  3  0  0  0  0  0  0
    6.4740    7.0380   17.0670 C   0  0  0  0  0  3  0  0  0  0  0  0
    7.4750    5.7500   18.8400 C   0  0  0  0  0  3  0  0  0  0  0  0
    7.5400    6.7540   17.8910 C   0  0  0  0  0  3  0  0  0  0  0  0
  1  3  1  0  0  0  0
  1  5  1  0  0  0  0
  2  1  2  0  0  0  0
  3  4  1  0  0  0  0
  5  9  1  0  0  0  0
  6 12  1  0  0  0  0
  6  7  1  0  0  0  0
  8  6  2  0  0  0  0
  9  7  2  0  0  0  0
 10  8  1  0  0  0  0
 10  5  2  0  0  0  0
 11 10  1  0  0  0  0
 12 14  2  0  0  0  0
 12 13  1  0  0  0  0
 15  3  1  0  0  0  0
 16 15  1  1  0  0  0
 17 16  1  0  0  0  0
 18 16  1  0  0  0  0
 19 17  1  0  0  0  0
 19 20  1  0  0  0  0
 20 18  1  0  0  0  0
 21 18  1  0  0  0  0
 21 23  1  0  0  0  0
 22 21  2  0  0  0  0
 24 22  1  0  0  0  0
 24 26  2  0  0  0  0
 25 23  2  0  0  0  0
 26 25  1  0  0  0  0
M  END
>  <MODEL>
1

>  <REMARK>
 VINA RESULT:    -6.345      0.000      0.000
 INTER + INTRA:          -8.860
 INTER:                  -8.200
 INTRA:                  -0.660
 UNBOUND:                -0.660
 SMILES O=C([O-])c1ccc(C(=O)NC[C@@H]2CCCN2c2ccccc2)c(F)c1
 SMILES IDX 8 1 9 2 10 3 7 5 4 6 5 7 25 8 6 9 23 10 24 11 2 12 1 13 3 14
 SMILES IDX 11 15 12 16 13 17 16 18 14 19 15 20 17 21 18 22 22 23 19 24
 SMILES IDX 21 25 20 26
 H PARENT 10 4
 Flexibility Score: inf

>  <TORSDO>
F 5

$$$$
TE06
 OpenBabel07182316283D

 29 31  0  0  1  0  0  0  0  0999 V2000
    2.4800    6.0570   20.2630 C   0  0  1  0  0  3  0  0  0  0  0  0
    1.7100    4.8820   20.7040 C   0  0  0  0  0  3  0  0  0  0  0  0
    1.4270    3.7970   19.7440 C   0  0  0  0  0  3  0  0  0  0  0  0
    2.1180    3.8880   18.4230 C   0  0  0  0  0  2  0  0  0  0  0  0
    3.4140    4.5000   18.6650 N   0  0  0  0  0  0  0  0  0  0  0  0
    3.3700    5.8840   19.0740 C   0  0  0  0  0  2  0  0  0  0  0  0
    1.6670    7.2410   19.9780 N   0  0  0  0  0  0  0  0  0  0  0  0
    2.2190    8.1980   21.8900 O   0  0  0  0  0  0  0  0  0  0  0  0
    1.5150    8.3420   20.8050 C   0  0  0  0  0  0  0  0  0  0  0  0
    1.2130    7.2110   19.0510 H   0  0  0  0  0  0  0  0  0  0  0  0
    0.7490    9.5610   20.6630 C   0  0  0  0  0  0  0  0  0  0  0  0
    0.8130   10.2160   19.4010 C   0  0  0  0  0  3  0  0  0  0  0  0
   -0.0230   10.1450   21.6040 C   0  0  0  0  0  0  0  0  0  0  0  0
    0.1410   11.3750   19.1280 C   0  0  0  0  0  3  0  0  0  0  0  0
   -0.7100   11.3310   21.3240 N   0  0  0  0  0  0  0  0  0  0  0  0
   -0.6270   11.9150   20.1300 C   0  0  0  0  0  3  0  0  0  0  0  0
   -0.2570    9.6210   22.9510 C   0  0  0  0  0  0  0  0  0  0  0  0
    0.8190    9.6390   23.7580 F   0  0  0  0  0  0  0  0  0  0  0  0
   -1.2750   10.4500   23.4930 F   0  0  0  0  0  0  0  0  0  0  0  0
   -0.8120    8.3530   22.8540 F   0  0  0  0  0  0  0  0  0  0  0  0
    4.6190    3.7760   18.5020 C   0  0  0  0  0  0  0  0  0  0  0  0
    4.9370    2.9380   19.3730 O   0  0  0  0  0  0  0  0  0  0  0  0
    5.4990    3.9860   17.3360 C   0  0  0  0  0  2  0  0  0  0  0  0
    6.3640    5.1580   17.5980 C   0  0  0  0  0  0  0  0  0  0  0  0
    7.1520    5.1210   18.7390 C   0  0  0  0  0  3  0  0  0  0  0  0
    6.3800    6.2340   16.7530 C   0  0  0  0  0  3  0  0  0  0  0  0
    7.9490    6.2020   18.9900 C   0  0  0  0  0  3  0  0  0  0  0  0
    7.1940    7.3160   17.0280 C   0  0  0  0  0  3  0  0  0  0  0  0
    7.9790    7.2940   18.1520 C   0  0  0  0  0  3  0  0  0  0  0  0
  1  7  1  6  0  0  0
  1  2  1  0  0  0  0
  3  2  2  0  0  0  0
  4  5  1  0  0  0  0
  4  3  1  0  0  0  0
  5  6  1  0  0  0  0
  6  1  1  0  0  0  0
  7  9  1  0  0  0  0
  9  8  2  0  0  0  0
 10  7  1  0  0  0  0
 11  9  1  0  0  0  0
 11 13  1  0  0  0  0
 12 11  2  0  0  0  0
 13 17  1  0  0  0  0
 14 12  1  0  0  0  0
 14 16  2  0  0  0  0
 15 13  2  0  0  0  0
 16 15  1  0  0  0  0
 17 19  1  0  0  0  0
 17 18  1  0  0  0  0
 20 17  1  0  0  0  0
 21  5  1  0  0  0  0
 21 22  2  0  0  0  0
 23 24  1  0  0  0  0
 23 21  1  0  0  0  0
 24 25  1  0  0  0  0
 25 27  2  0  0  0  0
 26 28  1  0  0  0  0
 26 24  2  0  0  0  0
 28 29  2  0  0  0  0
 29 27  1  0  0  0  0
M  END
>  <MODEL>
1

>  <REMARK>
 VINA RESULT:    -5.878      0.000      0.000
 INTER + INTRA:          -8.521
 INTER:                  -7.940
 INTRA:                  -0.580
 UNBOUND:                -0.580
 SMILES O=C(N[C@H]1CCCN(C(=O)Cc2ccccc2)C1)c1cccnc1C(F)(F)F
 SMILES IDX 4 1 5 2 6 3 7 4 8 5 18 6 3 7 1 8 2 9 19 11 20 12 24 13 21 14
 SMILES IDX 23 15 22 16 25 17 26 18 27 19 28 20 9 21 10 22 11 23 12 24
 SMILES IDX 13 25 17 26 14 27 16 28 15 29
 H PARENT 3 10
 Flexibility Score: inf

>  <TORSDO>
F 6

$$$$
TE07
 OpenBabel07182316283D

 25 26  0  0  0  0  0  0  0  0999 V2000
    5.1060    6.6040   16.5520 C   0  0  0  0  0  0  0  0  0  0  0  0
    4.8880    6.8440   15.3300 O   0  0  0  0  0  0  0  0  0  0  0  0
    6.3070    5.9100   16.9410 N   0  0  0  0  0  0  0  0  0  0  0  0
    6.9900    6.3830   18.1100 C   0  0  0  0  0  2  0  0  0  0  0  0
    7.2150    5.3990   19.1710 C   0  0  0  0  0  0  0  0  0  0  0  0
    8.3640    5.3510   19.9520 N   0  0  0  0  0  0  0  0  0  0  0  0
    9.2160    5.9610   19.7530 H   0  0  0  0  0  0  0  0  0  0  0  0
    8.4370    4.7170   20.7640 H   0  0  0  0  0  0  0  0  0  0  0  0
    6.2910    4.5250   19.3830 O   0  0  0  0  0  0  0  0  0  0  0  0
    6.7150    4.8200   16.1270 C   0  0  0  0  0  3  0  0  0  0  0  0
    5.5450    4.1220   15.4390 C   0  0  0  0  0  2  0  0  0  0  0  0
    7.7070    5.0440   15.0650 C   0  0  0  0  0  2  0  0  0  0  0  0
    6.0080    3.8270   14.0180 C   0  0  0  0  0  2  0  0  0  0  0  0
    6.9920    4.9400   13.7520 C   0  0  0  0  0  2  0  0  0  0  0  0
    4.1590    7.0120   17.5610 C   0  0  0  0  0  2  0  0  0  0  0  0
    3.3770    5.9660   18.2430 C   0  0  0  0  0  0  0  0  0  0  0  0
    3.0410    4.8150   17.5840 C   0  0  0  0  0  3  0  0  0  0  0  0
    3.0160    6.0930   19.5760 C   0  0  0  0  0  3  0  0  0  0  0  0
    2.3590    3.7690   18.2060 C   0  0  0  0  0  3  0  0  0  0  0  0
    2.3490    5.0890   20.2070 C   0  0  0  0  0  3  0  0  0  0  0  0
    2.0110    3.9220   19.5480 C   0  0  0  0  0  0  0  0  0  0  0  0
    1.3250    2.8280   20.2640 C   0  0  0  0  0  0  0  0  0  0  0  0
    1.5360    2.8950   21.5930 F   0  0  0  0  0  0  0  0  0  0  0  0
    1.7990    1.6380   19.6830 F   0  0  0  0  0  0  0  0  0  0  0  0
   -0.0440    2.9470   19.9940 F   0  0  0  0  0  0  0  0  0  0  0  0
  1  3  1  0  0  0  0
  1 15  1  0  0  0  0
  2  1  2  0  0  0  0
  3  4  1  0  0  0  0
  4  5  1  0  0  0  0
  5  9  2  0  0  0  0
  5  6  1  0  0  0  0
  6  8  1  0  0  0  0
  7  6  1  0  0  0  0
 10  3  1  0  0  0  0
 11 10  1  0  0  0  0
 12 10  1  0  0  0  0
 13 11  1  0  0  0  0
 14 13  1  0  0  0  0
 14 12  1  0  0  0  0
 15 16  1  0  0  0  0
 16 18  1  0  0  0  0
 17 19  1  0  0  0  0
 17 16  2  0  0  0  0
 18 20  2  0  0  0  0
 19 21  2  0  0  0  0
 21 20  1  0  0  0  0
 21 22  1  0  0  0  0
 22 23  1  0  0  0  0
 24 22  1  0  0  0  0
 25 22  1  0  0  0  0
M  END
>  <MODEL>
1

>  <REMARK>
 VINA RESULT:    -5.740      0.000      0.000
 INTER + INTRA:          -9.008
 INTER:                  -8.089
 INTRA:                  -0.919
 UNBOUND:                -0.919
 SMILES NC(=O)CN(C(=O)Cc1ccc(C(F)(F)F)cc1)C1CCCC1
 SMILES IDX 6 1 7 2 5 3 4 4 2 5 1 6 3 9 19 10 20 11 23 12 21 13 22 14
 SMILES IDX 8 15 9 16 10 17 18 18 11 19 17 20 12 21 13 22 14 23 15 24
 SMILES IDX 16 25
 H PARENT 1 7 1 8
 Flexibility Score: inf

>  <TORSDO>
F 7

$$$$
TE08
 OpenBabel07182316283D

 26 28  0  0  0  0  0  0  0  0999 V2000
    3.6480   15.3260   18.3900 C   0  0  0  0  0  0  0  0  0  0  0  0
    3.2110   15.9130   17.2950 O   0  0  0  0  0  0  0  0  0  0  0  0
    2.6420   14.9230   19.2780 N   0  0  0  0  0  0  0  0  0  0  0  0
    1.2250   15.2640   18.8870 C   0  0  0  0  0  2  0  0  0  0  0  0
    0.6140   13.9140   18.5450 C   0  0  0  0  0  2  0  0  0  0  0  0
    0.6710   13.1170   19.7600 N   0  0  0  0  0  0  0  0  0  0  0  0
    0.0060   11.8920   19.8100 C   0  0  0  0  0  0  0  0  0  0  0  0
   -0.6480   11.4760   18.7930 O   0  0  0  0  0  0  0  0  0  0  0  0
    1.4070   13.5840   20.9090 C   0  0  0  0  0  2  0  0  0  0  0  0
    2.7460   14.1940   20.5010 C   0  0  0  0  0  2  0  0  0  0  0  0
    5.0790   15.1830   18.5120 C   0  0  0  0  0  0  0  0  0  0  0  0
    7.8570   15.0800   18.8330 C   0  0  0  0  0  0  0  0  0  0  0  0
    7.2620   14.3790   17.8270 C   0  0  0  0  0  3  0  0  0  0  0  0
    7.0770   15.8300   19.6780 C   0  0  0  0  0  3  0  0  0  0  0  0
    5.8750   14.4430   17.6830 C   0  0  0  0  0  3  0  0  0  0  0  0
    5.7270   15.9030   19.5520 C   0  0  0  0  0  3  0  0  0  0  0  0
    9.2830   15.0100   18.9750 N   0  0  0  0  0  0  0  0  0  0  0  0
    9.8510   14.5360   20.2140 C   0  0  0  0  0  1  0  0  0  0  0  0
   10.1110   15.4140   17.8790 C   0  0  0  0  0  1  0  0  0  0  0  0
    0.0450   11.0580   21.0330 C   0  0  0  0  0  0  0  0  0  0  0  0
    0.8830    9.9660   21.0420 C   0  0  0  0  0  3  0  0  0  0  0  0
   -0.7280   11.3600   22.1300 C   0  0  0  0  0  0  0  0  0  0  0  0
    0.9560    9.1570   22.1560 C   0  0  0  0  0  3  0  0  0  0  0  0
   -0.6470   10.5450   23.2360 C   0  0  0  0  0  3  0  0  0  0  0  0
   -1.5340   12.4490   22.0610 F   0  0  0  0  0  0  0  0  0  0  0  0
    0.1780    9.4480   23.2790 C   0  0  0  0  0  3  0  0  0  0  0  0
  1 11  1  0  0  0  0
  1  3  1  0  0  0  0
  2  1  2  0  0  0  0
  3 10  1  0  0  0  0
  4  3  1  0  0  0  0
  5  4  1  0  0  0  0
  5  6  1  0  0  0  0
  6  7  1  0  0  0  0
  6  9  1  0  0  0  0
  7 20  1  0  0  0  0
  8  7  2  0  0  0  0
 10  9  1  0  0  0  0
 11 16  1  0  0  0  0
 12 17  1  0  0  0  0
 12 14  1  0  0  0  0
 13 12  2  0  0  0  0
 15 13  1  0  0  0  0
 15 11  2  0  0  0  0
 16 14  2  0  0  0  0
 17 18  1  0  0  0  0
 19 17  1  0  0  0  0
 20 21  2  0  0  0  0
 20 22  1  0  0  0  0
 21 23  1  0  0  0  0
 22 24  2  0  0  0  0
 23 26  2  0  0  0  0
 24 26  1  0  0  0  0
 25 22  1  0  0  0  0
M  END
>  <MODEL>
1

>  <REMARK>
 VINA RESULT:    -3.659      0.000      0.000
 INTER + INTRA:          -4.421
 INTER:                  -4.301
 INTRA:                  -0.120
 UNBOUND:                -0.120
 SMILES CN(C)c1ccc(C(=O)N2CCN(C(=O)c3ccccc3F)CC2)cc1
 SMILES IDX 8 1 9 2 10 3 11 4 12 5 13 6 14 7 15 8 23 9 24 10 7 11 4 12
 SMILES IDX 5 13 26 14 6 15 25 16 2 17 1 18 3 19 16 20 17 21 21 22 18 23
 SMILES IDX 20 24 22 25 19 26
 H PARENT
 Flexibility Score: inf

>  <TORSDO>
F 3

$$$$
TE09
 OpenBabel07182316283D

 26 28  0  0  1  0  0  0  0  0999 V2000
    8.6620    7.4720   18.8980 O   0  0  0  0  0  0  0  0  0  0  0  0
    8.1360    8.1550   18.0040 C   0  0  0  0  0  0  0  0  0  0  0  0
    7.3050    7.4590   17.0600 N   0  0  0  0  0  0  0  0  0  0  0  0
    6.8450    8.0190   16.2860 H   0  0  0  0  0  0  0  0  0  0  0  0
    8.2790    9.6150   17.8120 C   0  0  0  0  0  2  0  0  0  0  0  0
    9.0180   10.2260   18.9560 C   0  0  0  0  0  2  0  0  0  0  0  0
    9.5620   11.5630   18.5720 C   0  0  2  0  0  3  0  0  0  0  0  0
   10.9250   11.4650   17.9140 C   0  0  0  0  0  2  0  0  0  0  0  0
    9.7450   12.2840   19.7550 O   0  0  0  0  0  0  0  0  0  0  0  0
   11.8110   12.1910   18.8910 C   0  0  0  0  0  2  0  0  0  0  0  0
   11.0360   11.9980   20.1970 C   0  0  0  0  0  2  0  0  0  0  0  0
    7.1030    6.0250   17.1640 C   0  0  2  0  0  3  0  0  0  0  0  0
    6.4900    5.5190   15.9250 C   0  0  0  0  0  3  0  0  0  0  0  0
    6.3220    5.7970   18.4280 C   0  0  0  0  0  2  0  0  0  0  0  0
    5.2840    4.6820   16.0210 C   0  0  0  0  0  3  0  0  0  0  0  0
    4.8830    5.4160   18.1800 C   0  0  0  0  0  2  0  0  0  0  0  0
    4.9490    4.2070   17.3420 N   0  0  0  0  0  4  0  0  0  0  0  0
    5.7200    3.5750   17.6400 H   0  0  0  0  0  0  0  0  0  0  0  0
    3.6630    3.6120   17.3050 C   0  0  0  0  0  2  0  0  0  0  0  0
    3.0630    3.3000   18.5960 C   0  0  0  0  0  0  0  0  0  0  0  0
    3.7280    2.6790   19.6330 C   0  0  0  0  0  3  0  0  0  0  0  0
    1.7390    3.6440   18.8020 C   0  0  0  0  0  3  0  0  0  0  0  0
    3.0850    2.4130   20.8400 C   0  0  0  0  0  3  0  0  0  0  0  0
    1.0820    3.3890   19.9900 C   0  0  0  0  0  3  0  0  0  0  0  0
    1.7640    2.7620   21.0310 C   0  0  0  0  0  0  0  0  0  0  0  0
    1.1710    2.4900   22.2110 F   0  0  0  0  0  0  0  0  0  0  0  0
  2  1  2  0  0  0  0
  3  2  1  0  0  0  0
  4  3  1  0  0  0  0
  5  2  1  0  0  0  0
  5  6  1  0  0  0  0
  7  6  1  1  0  0  0
  7  9  1  0  0  0  0
  8  7  1  0  0  0  0
  8 10  1  0  0  0  0
  9 11  1  0  0  0  0
 10 11  1  0  0  0  0
 12  3  1  6  0  0  0
 12 14  1  0  0  0  0
 13 15  2  0  0  0  0
 13 12  1  0  0  0  0
 15 17  1  0  0  0  0
 16 14  1  0  0  0  0
 17 18  1  0  0  0  0
 17 16  1  0  0  0  0
 19 17  1  0  0  0  0
 19 20  1  0  0  0  0
 20 22  2  0  0  0  0
 20 21  1  0  0  0  0
 21 23  2  0  0  0  0
 22 24  1  0  0  0  0
 23 25  1  0  0  0  0
 24 25  2  0  0  0  0
 25 26  1  0  0  0  0
M  END
>  <MODEL>
1

>  <REMARK>
 VINA RESULT:    -5.875      0.000      0.000
 INTER + INTRA:          -8.035
 INTER:                  -7.936
 INTRA:                  -0.099
 UNBOUND:                -0.099
 SMILES O=C(CC[C@@H]1CCCO1)NC1CC[NH+](Cc2ccc(F)cc2)CC1
 SMILES IDX 1 1 2 2 10 3 3 5 4 6 5 7 6 8 9 9 7 10 8 11 11 12 12 13 24 14
 SMILES IDX 13 15 23 16 14 17 15 19 16 20 17 21 22 22 18 23 21 24 19 25
 SMILES IDX 20 26
 H PARENT 10 4 14 18
 Flexibility Score: inf

>  <TORSDO>
F 6

$$$$
TE10
 OpenBabel07182316283D

 31 33  0  0  0  0  0  0  0  0999 V2000
    0.0060   10.9460   19.9090 N   0  0  0  0  0  0  0  0  0  0  0  0
   -0.2220   11.0480   20.9160 H   0  0  0  0  0  0  0  0  0  0  0  0
    0.8100    9.8720   19.4850 C   0  0  0  0  0  0  0  0  0  0  0  0
    0.8090    8.9730   21.8120 C   0  0  0  0  0  1  0  0  0  0  0  0
    1.2190    8.9020   20.3730 C   0  0  0  0  0  0  0  0  0  0  0  0
    2.0060    7.8350   19.9960 C   0  0  0  0  0  3  0  0  0  0  0  0
    2.4070    7.7130   18.7030 C   0  0  0  0  0  0  0  0  0  0  0  0
    1.2350    9.7190   18.1710 C   0  0  0  0  0  3  0  0  0  0  0  0
    2.0220    8.6570   17.7850 C   0  0  0  0  0  3  0  0  0  0  0  0
    3.2470    6.6080   18.2530 C   0  0  0  0  0  0  0  0  0  0  0  0
    3.0320    5.4230   18.6160 O   0  0  0  0  0  0  0  0  0  0  0  0
    4.3450    6.8140   17.3860 N   0  0  0  0  0  0  0  0  0  0  0  0
    4.5960    7.7650   17.0330 H   0  0  0  0  0  0  0  0  0  0  0  0
    5.1610    5.7210   16.9530 C   0  0  0  0  0  3  0  0  0  0  0  0
    6.5050    5.8110   17.6420 C   0  0  0  0  0  2  0  0  0  0  0  0
    5.5710    5.8080   15.5040 C   0  0  0  0  0  2  0  0  0  0  0  0
    7.3610    4.8810   16.8050 C   0  0  0  0  0  2  0  0  0  0  0  0
    6.6540    4.7440   15.4590 C   0  0  0  0  0  2  0  0  0  0  0  0
   -0.5210   11.9200   18.9760 C   0  0  0  0  0  2  0  0  0  0  0  0
   -0.7710   13.2520   19.6690 C   0  0  0  0  0  3  0  0  0  0  0  0
   -2.1930   13.2830   20.1120 C   0  0  0  0  0  2  0  0  0  0  0  0
    0.2120   13.4640   20.7880 C   0  0  0  0  0  2  0  0  0  0  0  0
   -2.5100   14.3740   21.1040 C   0  0  0  0  0  2  0  0  0  0  0  0
   -0.1200   14.7380   21.4970 C   0  0  0  0  0  2  0  0  0  0  0  0
   -1.4550   14.5940   22.0620 N   0  0  0  0  0  0  0  0  0  0  0  0
   -1.6660   14.6740   23.4690 C   0  0  0  0  0  0  0  0  0  0  0  0
   -0.6580   14.8700   24.1970 O   0  0  0  0  0  0  0  0  0  0  0  0
   -3.0140   14.5350   24.0750 C   0  0  0  0  0  0  0  0  0  0  0  0
   -4.0080   15.4910   23.4530 C   0  0  0  0  0  1  0  0  0  0  0  0
   -3.5650   13.1430   23.9610 C   0  0  0  0  0  1  0  0  0  0  0  0
   -2.9230   14.8890   25.5460 C   0  0  0  0  0  1  0  0  0  0  0  0
  1  2  1  0  0  0  0
  3  1  1  0  0  0  0
  3  5  1  0  0  0  0
  5  4  1  0  0  0  0
  6  5  2  0  0  0  0
  7  6  1  0  0  0  0
  8  3  2  0  0  0  0
  9  8  1  0  0  0  0
  9  7  2  0  0  0  0
 10 11  2  0  0  0  0
 10  7  1  0  0  0  0
 12 10  1  0  0  0  0
 13 12  1  0  0  0  0
 14 12  1  0  0  0  0
 14 15  1  0  0  0  0
 16 14  1  0  0  0  0
 17 15  1  0  0  0  0
 18 16  1  0  0  0  0
 18 17  1  0  0  0  0
 19 20  1  0  0  0  0
 19  1  1  0  0  0  0
 20 21  1  0  0  0  0
 20 22  1  0  0  0  0
 21 23  1  0  0  0  0
 22 24  1  0  0  0  0
 23 25  1  0  0  0  0
 24 25  1  0  0  0  0
 25 26  1  0  0  0  0
 26 28  1  0  0  0  0
 26 27  2  0  0  0  0
 28 31  1  0  0  0  0
 29 28  1  0  0  0  0
 30 28  1  0  0  0  0
M  END
>  <MODEL>
1

>  <REMARK>
 VINA RESULT:    -5.700      0.000      0.000
 INTER + INTRA:          -7.877
 INTER:                  -7.700
 INTRA:                  -0.178
 UNBOUND:                -0.178
 SMILES Cc1cc(C(=O)NC2CCCC2)ccc1NCC1CCN(C(=O)C(C)(C)C)CC1
 SMILES IDX 16 1 15 3 1 4 2 5 3 6 4 7 14 8 13 9 5 10 6 11 7 12 8 14 9 15
 SMILES IDX 12 16 10 17 11 18 17 19 18 20 19 21 29 22 20 23 28 24 21 25
 SMILES IDX 22 26 23 27 24 28 25 29 26 30 27 31
 H PARENT 16 2 7 13
 Flexibility Score: inf

>  <TORSDO>
F 6

$$$$
GF01
 OpenBabel07182316283D

 37 40  0  0  1  0  0  0  0  0999 V2000
   -0.1830   13.4610   20.2200 C   0  0  0  0  0  0  0  0  0  0  0  0
    0.9840   12.8230   20.3770 C   0  0  0  0  0  3  0  0  0  0  0  0
    1.2920   11.6480   19.6310 C   0  0  0  0  0  3  0  0  0  0  0  0
    0.3690   11.1900   18.7380 C   0  0  0  0  0  0  0  0  0  0  0  0
   -0.8590   11.8710   18.5640 C   0  0  0  0  0  0  0  0  0  0  0  0
   -1.1000   12.9660   19.2940 C   0  0  0  0  0  3  0  0  0  0  0  0
   -0.5520   14.5560   20.9940 N   0  0  0  0  0  0  0  0  0  0  0  0
   -1.3560   15.6390   20.4120 C   0  0  0  0  0  1  0  0  0  0  0  0
   -0.2150   14.7610   22.4140 C   0  0  0  0  0  2  0  0  0  0  0  0
   -1.4380   14.0940   23.0400 C   0  0  0  0  0  0  0  0  0  0  0  0
   -5.0220   12.4210   24.6750 C   0  0  0  0  0  1  0  0  0  0  0  0
   -3.7840   13.0190   24.1080 C   0  0  0  0  0  0  0  0  0  0  0  0
   -3.5440   14.3890   24.1640 C   0  0  0  0  0  3  0  0  0  0  0  0
   -2.8280   12.2290   23.5060 C   0  0  0  0  0  3  0  0  0  0  0  0
   -2.3750   14.9240   23.6310 C   0  0  0  0  0  3  0  0  0  0  0  0
   -1.6560   12.7620   22.9730 C   0  0  0  0  0  3  0  0  0  0  0  0
   -1.8600   11.2460   17.7060 C   0  0  0  0  0  0  0  0  0  0  0  0
   -2.0610   11.8510   16.4010 N   0  0  0  0  0  0  0  0  0  0  0  0
   -2.5120   10.2740   18.0050 O   0  0  0  0  0  0  0  0  0  0  0  0
   -1.2960   12.0900   15.7720 H   0  0  0  0  0  0  0  0  0  0  0  0
   -3.0380   12.0650   16.1260 H   0  0  0  0  0  0  0  0  0  0  0  0
    0.5740   10.0630   17.8130 C   0  0  0  0  0  2  0  0  0  0  0  0
    1.2030    8.9900   18.4380 N   0  0  0  0  0  0  0  0  0  0  0  0
    2.2670    8.1290   18.1250 C   0  0  0  0  0  0  0  0  0  0  0  0
    0.7310    8.7570   19.4480 H   0  0  0  0  0  0  0  0  0  0  0  0
    2.8990    8.1390   17.0760 O   0  0  0  0  0  0  0  0  0  0  0  0
    2.6480    7.1700   19.0870 N   0  0  0  0  0  0  0  0  0  0  0  0
    2.1390    7.1630   20.0360 H   0  0  0  0  0  0  0  0  0  0  0  0
    3.6980    6.1730   19.0110 C   0  0  2  0  0  3  0  0  0  0  0  0
    4.0870    5.9510   17.5590 C   0  0  0  0  0  2  0  0  0  0  0  0
    2.8970    4.9390   19.3420 C   0  0  0  0  0  0  0  0  0  0  0  0
    3.7690    4.5310   17.2640 C   0  0  0  0  0  2  0  0  0  0  0  0
    2.7770    4.1250   18.2750 C   0  0  0  0  0  0  0  0  0  0  0  0
    2.1030    4.6750   20.4720 C   0  0  0  0  0  3  0  0  0  0  0  0
    1.8590    3.0570   18.3390 C   0  0  0  0  0  3  0  0  0  0  0  0
    1.2040    3.6380   20.5400 C   0  0  0  0  0  3  0  0  0  0  0  0
    1.0770    2.7840   19.4150 C   0  0  0  0  0  3  0  0  0  0  0  0
  1  2  1  0  0  0  0
  1  7  1  0  0  0  0
  3  2  2  0  0  0  0
  4  3  1  0  0  0  0
  5  4  2  0  0  0  0
  5  6  1  0  0  0  0
  6  1  2  0  0  0  0
  7  9  1  0  0  0  0
  8  7  1  0  0  0  0
  9 10  1  0  0  0  0
 10 15  1  0  0  0  0
 12 13  1  0  0  0  0
 12 11  1  0  0  0  0
 14 12  2  0  0  0  0
 15 13  2  0  0  0  0
 16 10  2  0  0  0  0
 16 14  1  0  0  0  0
 17 19  2  0  0  0  0
 17  5  1  0  0  0  0
 18 17  1  0  0  0  0
 20 18  1  0  0  0  0
 21 18  1  0  0  0  0
 22 23  1  0  0  0  0
 22  4  1  0  0  0  0
 23 25  1  0  0  0  0
 24 23  1  0  0  0  0
 24 27  1  0  0  0  0
 26 24  2  0  0  0  0
 27 28  1  0  0  0  0
 29 27  1  6  0  0  0
 29 31  1  0  0  0  0
 30 29  1  0  0  0  0
 31 34  1  0  0  0  0
 32 30  1  0  0  0  0
 32 33  1  0  0  0  0
 33 35  1  0  0  0  0
 33 31  2  0  0  0  0
 34 36  2  0  0  0  0
 35 37  2  0  0  0  0
 37 36  1  0  0  0  0
M  END
>  <MODEL>
1

>  <REMARK>
 VINA RESULT:    -6.531      0.000      0.000
 INTER + INTRA:          -8.966
 INTER:                  -9.204
 INTRA:                   0.238
 UNBOUND:                 0.238
 SMILES Cc1ccc(CN(C)c2ccc(CNC(=O)N[C@@H]3CCc4ccccc43)c(C(N)=O)c2)cc1
 SMILES IDX 9 1 10 2 11 3 12 4 27 5 31 6 7 7 8 8 6 9 5 10 1 11 2 12 3 13
 SMILES IDX 33 14 4 15 32 16 28 17 29 18 30 19 13 22 14 23 15 24 16 26
 SMILES IDX 17 27 18 29 19 30 26 31 20 32 21 33 25 34 22 35 24 36 23 37
 H PARENT 29 20 29 21 14 25 17 28
 Flexibility Score: inf

>  <TORSDO>
F 7

$$$$
GF02
 OpenBabel07182316283D

 35 38  0  0  1  0  0  0  0  0999 V2000
    8.8980   10.1290   18.4600 C   0  0  0  0  0  2  0  0  0  0  0  0
    8.7090   11.5860   18.5620 C   0  0  0  0  0  0  0  0  0  0  0  0
    8.9130   13.7270   19.6860 C   0  0  0  0  0  0  0  0  0  0  0  0
    8.2990   14.3690   18.6620 C   0  0  0  0  0  0  0  0  0  0  0  0
    9.1180   12.3390   19.6380 C   0  0  0  0  0  0  0  0  0  0  0  0
    8.0880   15.7460   18.6960 F   0  0  0  0  0  0  0  0  0  0  0  0
    7.8740   13.6540   17.5690 C   0  0  0  0  0  3  0  0  0  0  0  0
    8.0820   12.2860   17.5310 C   0  0  0  0  0  3  0  0  0  0  0  0
    9.3630   14.4750   20.8410 C   0  0  0  0  0  0  0  0  0  0  0  0
   11.4590   15.0600   19.5680 C   0  0  0  0  0  1  0  0  0  0  0  0
   10.5890   15.1040   20.7530 C   0  0  0  0  0  0  0  0  0  0  0  0
   11.0000   15.8150   21.8630 C   0  0  0  0  0  3  0  0  0  0  0  0
   10.2510   15.9130   23.0190 C   0  0  0  0  0  3  0  0  0  0  0  0
    8.5610   14.5310   21.9660 C   0  0  0  0  0  3  0  0  0  0  0  0
    9.0340   15.2590   23.0390 C   0  0  0  0  0  3  0  0  0  0  0  0
    9.7830   11.6900   20.7580 C   0  0  0  0  0  0  0  0  0  0  0  0
    9.2140   11.1070   21.8840 N   0  0  0  0  0  0  0  0  0  0  0  0
   11.0770   11.6350   20.7310 O   0  0  0  0  0  0  0  0  0  0  0  0
    9.0940   11.6640   22.7580 H   0  0  0  0  0  0  0  0  0  0  0  0
    8.9060   10.1130   21.9320 H   0  0  0  0  0  0  0  0  0  0  0  0
    8.1340    9.4580   17.4610 N   0  0  0  0  0  0  0  0  0  0  0  0
    7.9120    8.0370   17.6790 C   0  0  0  0  0  0  0  0  0  0  0  0
    7.7100    9.8210   16.5980 H   0  0  0  0  0  0  0  0  0  0  0  0
    8.4010    7.5200   18.7120 O   0  0  0  0  0  0  0  0  0  0  0  0
    7.1630    7.2810   16.7370 N   0  0  0  0  0  0  0  0  0  0  0  0
    6.7690    7.7370   15.8890 H   0  0  0  0  0  0  0  0  0  0  0  0
    6.9500    5.8650   16.9690 C   0  0  2  0  0  3  0  0  0  0  0  0
    7.0870    5.0470   15.7300 C   0  0  0  0  0  2  0  0  0  0  0  0
    5.5580    5.6360   17.4080 C   0  0  0  0  0  0  0  0  0  0  0  0
    6.1880    3.8410   16.0350 C   0  0  0  0  0  2  0  0  0  0  0  0
    5.1230    4.4670   16.8710 C   0  0  0  0  0  0  0  0  0  0  0  0
    4.7080    6.3750   18.2180 C   0  0  0  0  0  3  0  0  0  0  0  0
    3.8470    4.0000   17.1190 C   0  0  0  0  0  3  0  0  0  0  0  0
    3.4390    5.9040   18.4600 C   0  0  0  0  0  3  0  0  0  0  0  0
    2.9870    4.7140   17.9180 C   0  0  0  0  0  3  0  0  0  0  0  0
  1  2  1  0  0  0  0
  2  5  1  0  0  0  0
  3  9  1  0  0  0  0
  4  6  1  0  0  0  0
  4  3  1  0  0  0  0
  5  3  2  0  0  0  0
  5 16  1  0  0  0  0
  7  4  2  0  0  0  0
  8  7  1  0  0  0  0
  8  2  2  0  0  0  0
  9 14  1  0  0  0  0
 10 11  1  0  0  0  0
 11  9  2  0  0  0  0
 11 12  1  0  0  0  0
 12 13  2  0  0  0  0
 13 15  1  0  0  0  0
 14 15  2  0  0  0  0
 16 17  1  0  0  0  0
 17 20  1  0  0  0  0
 17 19  1  0  0  0  0
 18 16  2  0  0  0  0
 21 22  1  0  0  0  0
 21  1  1  0  0  0  0
 22 24  2  0  0  0  0
 23 21  1  0  0  0  0
 25 22  1  0  0  0  0
 26 25  1  0  0  0  0
 27 25  1  6  0  0  0
 27 29  1  0  0  0  0
 28 30  1  0  0  0  0
 28 27  1  0  0  0  0
 29 32  1  0  0  0  0
 30 31  1  0  0  0  0
 31 33  1  0  0  0  0
 31 29  2  0  0  0  0
 32 34  2  0  0  0  0
 33 35  2  0  0  0  0
 35 34  1  0  0  0  0
M  END
>  <MODEL>
1

>  <REMARK>
 VINA RESULT:    -6.298      0.000      0.000
 INTER + INTRA:          -9.049
 INTER:                  -8.139
 INTRA:                  -0.909
 UNBOUND:                -0.909
 SMILES Cc1ccccc1-c1c(F)ccc(CNC(=O)N[C@@H]2CCc3ccccc32)c1C(N)=O
 SMILES IDX 14 1 13 2 8 3 9 4 28 5 10 6 11 7 12 8 7 9 1 10 2 11 3 12
 SMILES IDX 4 13 6 14 5 15 29 16 30 17 31 18 15 21 16 22 17 24 18 25
 SMILES IDX 19 27 20 28 27 29 21 30 22 31 26 32 23 33 25 34 24 35
 H PARENT 30 19 30 20 15 23 18 26
 Flexibility Score: inf

>  <TORSDO>
F 5

$$$$
GF03
 OpenBabel07182316283D

 36 39  0  0  1  0  0  0  0  0999 V2000
    7.0130    7.3230   16.6600 N   0  0  0  0  0  0  0  0  0  0  0  0
    7.7550    8.0270   17.6410 C   0  0  0  0  0  0  0  0  0  0  0  0
    7.9930    7.4370   18.7380 O   0  0  0  0  0  0  0  0  0  0  0  0
    8.2320    9.3500   17.4310 N   0  0  0  0  0  0  0  0  0  0  0  0
    6.7920    7.7620   15.7440 H   0  0  0  0  0  0  0  0  0  0  0  0
    8.0550    9.8400   16.5370 H   0  0  0  0  0  0  0  0  0  0  0  0
    6.5640    5.9950   16.9370 C   0  0  1  0  0  3  0  0  0  0  0  0
    3.1590    6.5130   18.6260 C   0  0  0  0  0  0  0  0  0  0  0  0
    2.6330    5.2880   18.2070 C   0  0  0  0  0  3  0  0  0  0  0  0
    4.4380    6.8040   18.2400 C   0  0  0  0  0  3  0  0  0  0  0  0
    3.3660    4.4090   17.4390 C   0  0  0  0  0  3  0  0  0  0  0  0
    5.1990    5.9200   17.4600 C   0  0  0  0  0  0  0  0  0  0  0  0
    4.6580    4.7220   17.0610 C   0  0  0  0  0  0  0  0  0  0  0  0
    5.6550    3.9520   16.2290 C   0  0  0  0  0  2  0  0  0  0  0  0
    6.5440    5.1060   15.7280 C   0  0  0  0  0  2  0  0  0  0  0  0
    2.3220    7.3910   19.4300 C   0  0  0  0  0  0  0  0  0  0  0  0
    2.1030    8.9990   17.5470 C   0  0  0  0  0  1  0  0  0  0  0  0
    1.7980    8.5720   18.9580 C   0  0  0  0  0  0  0  0  0  0  0  0
    0.9990    9.3810   19.7520 C   0  0  0  0  0  3  0  0  0  0  0  0
    0.6980    9.0330   21.0500 C   0  0  0  0  0  0  0  0  0  0  0  0
    2.0230    7.0390   20.7280 C   0  0  0  0  0  3  0  0  0  0  0  0
   -0.0930    9.8310   21.8380 F   0  0  0  0  0  0  0  0  0  0  0  0
    1.2190    7.8500   21.5340 C   0  0  0  0  0  3  0  0  0  0  0  0
    8.9730   10.0160   18.4890 C   0  0  0  0  0  2  0  0  0  0  0  0
    8.8110   11.4760   18.5070 C   0  0  0  0  0  0  0  0  0  0  0  0
    8.1410   12.1210   17.4910 C   0  0  0  0  0  3  0  0  0  0  0  0
    9.3390   12.2340   19.5230 C   0  0  0  0  0  0  0  0  0  0  0  0
    7.9870   13.5070   17.4690 C   0  0  0  0  0  3  0  0  0  0  0  0
    9.1910   13.6260   19.5110 C   0  0  0  0  0  3  0  0  0  0  0  0
    8.5240   14.2500   18.4970 C   0  0  0  0  0  0  0  0  0  0  0  0
    8.4030   15.6150   18.5290 F   0  0  0  0  0  0  0  0  0  0  0  0
   10.0610   11.6910   20.6300 C   0  0  0  0  0  0  0  0  0  0  0  0
    9.4990   11.2590   21.8330 N   0  0  0  0  0  0  0  0  0  0  0  0
   11.3370   11.5750   20.5460 O   0  0  0  0  0  0  0  0  0  0  0  0
    9.4370   11.8850   22.6510 H   0  0  0  0  0  0  0  0  0  0  0  0
    9.1460   10.2890   21.9400 H   0  0  0  0  0  0  0  0  0  0  0  0
  1  2  1  0  0  0  0
  2  3  2  0  0  0  0
  4  2  1  0  0  0  0
  4 24  1  0  0  0  0
  5  1  1  0  0  0  0
  6  4  1  0  0  0  0
  7  1  1  6  0  0  0
  7 12  1  0  0  0  0
  8 16  1  0  0  0  0
  9  8  2  0  0  0  0
 10  8  1  0  0  0  0
 11  9  1  0  0  0  0
 12 10  2  0  0  0  0
 13 11  2  0  0  0  0
 13 12  1  0  0  0  0
 14 13  1  0  0  0  0
 15 14  1  0  0  0  0
 15  7  1  0  0  0  0
 16 21  1  0  0  0  0
 17 18  1  0  0  0  0
 18 16  2  0  0  0  0
 18 19  1  0  0  0  0
 19 20  2  0  0  0  0
 20 23  1  0  0  0  0
 20 22  1  0  0  0  0
 21 23  2  0  0  0  0
 24 25  1  0  0  0  0
 25 27  1  0  0  0  0
 26 25  2  0  0  0  0
 27 32  1  0  0  0  0
 28 26  1  0  0  0  0
 28 30  2  0  0  0  0
 29 27  2  0  0  0  0
 30 31  1  0  0  0  0
 30 29  1  0  0  0  0
 32 33  1  0  0  0  0
 33 36  1  0  0  0  0
 33 35  1  0  0  0  0
 34 32  2  0  0  0  0
M  END
>  <MODEL>
1

>  <REMARK>
 VINA RESULT:    -6.402      0.000      0.000
 INTER + INTRA:          -9.035
 INTER:                  -8.274
 INTRA:                  -0.762
 UNBOUND:                -0.762
 SMILES Cc1cc(F)ccc1-c1ccc2c(c1)[C@H](NC(=O)NCc1ccc(F)cc1C(N)=O)CC2
 SMILES IDX 16 1 17 2 18 3 19 4 15 7 9 8 10 9 14 10 11 11 13 12 12 13
 SMILES IDX 32 14 31 15 8 16 1 17 2 18 3 19 4 20 7 21 5 22 6 23 20 24
 SMILES IDX 21 25 22 26 27 27 23 28 26 29 24 30 25 31 28 32 29 33 30 34
 H PARENT 16 5 19 6 29 35 29 36
 Flexibility Score: inf

>  <TORSDO>
F 5

$$$$
GF04
 OpenBabel07182316283D

 35 38  0  0  1  0  0  0  0  0999 V2000
   -2.6080   11.7680   18.5880 C   0  0  0  0  0  0  0  0  0  0  0  0
   -2.3760   10.6000   17.9140 C   0  0  0  0  0  3  0  0  0  0  0  0
   -1.0940   10.0540   17.7360 C   0  0  0  0  0  3  0  0  0  0  0  0
   -0.0430   10.7130   18.2660 C   0  0  0  0  0  0  0  0  0  0  0  0
   -0.2860   11.9540   18.9640 C   0  0  0  0  0  0  0  0  0  0  0  0
   -1.5290   12.4610   19.1200 C   0  0  0  0  0  3  0  0  0  0  0  0
   -4.0100   12.1240   18.9750 C   0  0  0  0  0  0  0  0  0  0  0  0
   -6.2850   11.6330   19.3280 C   0  0  0  0  0  0  0  0  0  0  0  0
   -6.4080   12.5920   20.2180 C   0  0  0  0  0  3  0  0  0  0  0  0
   -5.0570   11.3570   18.6570 C   0  0  0  0  0  3  0  0  0  0  0  0
   -5.3330   13.4090   20.5590 C   0  0  0  0  0  3  0  0  0  0  0  0
   -4.1370   13.1570   19.9220 C   0  0  0  0  0  3  0  0  0  0  0  0
   -7.3130   10.7420   18.9420 O   0  0  0  0  0  0  0  0  0  0  0  0
   -7.1780    9.4010   19.3850 C   0  0  0  0  0  1  0  0  0  0  0  0
    0.9640   12.6810   19.2640 C   0  0  0  0  0  0  0  0  0  0  0  0
    1.4660   12.7300   20.5460 N   0  0  0  0  0  0  0  0  0  0  0  0
    1.5760   13.2780   18.3320 O   0  0  0  0  0  0  0  0  0  0  0  0
    1.2610   13.5510   21.1350 H   0  0  0  0  0  0  0  0  0  0  0  0
    2.0630   11.9690   20.9320 H   0  0  0  0  0  0  0  0  0  0  0  0
    1.2940   10.1810   18.5200 C   0  0  0  0  0  2  0  0  0  0  0  0
    1.8700    9.3490   17.5210 N   0  0  0  0  0  0  0  0  0  0  0  0
    2.4010    8.1150   18.1200 C   0  0  0  0  0  0  0  0  0  0  0  0
    1.9380    9.5230   16.5300 H   0  0  0  0  0  0  0  0  0  0  0  0
    2.0530    7.8800   19.3180 O   0  0  0  0  0  0  0  0  0  0  0  0
    3.2540    7.2990   17.4310 N   0  0  0  0  0  0  0  0  0  0  0  0
    3.4370    7.5190   16.3990 H   0  0  0  0  0  0  0  0  0  0  0  0
    3.9700    6.1850   17.9910 C   0  0  2  0  0  3  0  0  0  0  0  0
    5.2460    5.8240   17.3290 C   0  0  0  0  0  2  0  0  0  0  0  0
    3.2250    4.8830   18.0350 C   0  0  0  0  0  0  0  0  0  0  0  0
    5.5760    4.5380   18.1110 C   0  0  0  0  0  2  0  0  0  0  0  0
    4.2120    3.9030   18.1310 C   0  0  0  0  0  0  0  0  0  0  0  0
    1.9400    4.4350   18.0390 C   0  0  0  0  0  3  0  0  0  0  0  0
    3.9650    2.5460   18.2330 C   0  0  0  0  0  3  0  0  0  0  0  0
    1.6540    3.0680   18.1410 C   0  0  0  0  0  3  0  0  0  0  0  0
    2.6380    2.1410   18.2400 C   0  0  0  0  0  3  0  0  0  0  0  0
  1  7  1  0  0  0  0
  1  6  1  0  0  0  0
  2  1  2  0  0  0  0
  3  2  1  0  0  0  0
  3  4  2  0  0  0  0
  4 20  1  0  0  0  0
  4  5  1  0  0  0  0
  5  6  2  0  0  0  0
  5 15  1  0  0  0  0
  7 12  1  0  0  0  0
  8  9  2  0  0  0  0
  9 11  1  0  0  0  0
 10  7  2  0  0  0  0
 10  8  1  0  0  0  0
 12 11  2  0  0  0  0
 13  8  1  0  0  0  0
 13 14  1  0  0  0  0
 15 16  1  0  0  0  0
 16 19  1  0  0  0  0
 16 18  1  0  0  0  0
 17 15  2  0  0  0  0
 21 22  1  0  0  0  0
 21 20  1  0  0  0  0
 22 24  2  0  0  0  0
 23 21  1  0  0  0  0
 25 22  1  0  0  0  0
 26 25  1  0  0  0  0
 27 25  1  6  0  0  0
 27 29  1  0  0  0  0
 28 27  1  0  0  0  0
 28 30  1  0  0  0  0
 29 32  2  0  0  0  0
 29 31  1  0  0  0  0
 30 31  1  0  0  0  0
 31 33  2  0  0  0  0
 32 34  1  0  0  0  0
 33 35  1  0  0  0  0
 34 35  2  0  0  0  0
M  END
>  <MODEL>
1

>  <REMARK>
 VINA RESULT:    -6.410      0.000      0.000
 INTER + INTRA:          -9.501
 INTER:                  -8.659
 INTRA:                  -0.843
 UNBOUND:                -0.843
 SMILES COc1cccc(-c2ccc(CNC(=O)N[C@@H]3CCc4ccccc43)c(C(N)=O)c2)c1
 SMILES IDX 8 1 9 2 10 3 11 4 26 5 30 6 7 7 3 8 4 9 31 10 5 11 6 12 2 13
 SMILES IDX 1 14 27 15 28 16 29 17 12 20 13 21 14 22 15 24 16 25 17 27
 SMILES IDX 18 28 25 29 19 30 20 31 24 32 21 33 23 34 22 35
 H PARENT 28 18 28 19 13 23 16 26
 Flexibility Score: inf

>  <TORSDO>
F 6

$$$$
GF05
 OpenBabel07182316283D

 35 38  0  0  1  0  0  0  0  0999 V2000
   -0.1080   10.8970   21.6430 C   0  0  0  0  0  0  0  0  0  0  0  0
    0.2710    9.9020   22.5010 C   0  0  0  0  0  3  0  0  0  0  0  0
    0.9570    8.7480   22.1040 C   0  0  0  0  0  3  0  0  0  0  0  0
    1.2990    8.5580   20.7740 C   0  0  0  0  0  0  0  0  0  0  0  0
    0.9310    9.5740   19.9040 C   0  0  0  0  0  0  0  0  0  0  0  0
    0.2630   10.6830   20.3020 C   0  0  0  0  0  3  0  0  0  0  0  0
   -1.0180   11.9780   21.8870 C   0  0  0  0  0  0  0  0  0  0  0  0
   -2.7380   12.9510   23.3210 C   0  0  0  0  0  0  0  0  0  0  0  0
   -3.0930   13.8640   22.3410 C   0  0  0  0  0  3  0  0  0  0  0  0
   -1.7260   12.0340   23.1060 C   0  0  0  0  0  3  0  0  0  0  0  0
   -2.4020   13.8180   21.1580 C   0  0  0  0  0  3  0  0  0  0  0  0
   -1.3920   12.8910   20.9500 C   0  0  0  0  0  3  0  0  0  0  0  0
   -3.4780   13.0370   24.5050 O   0  0  0  0  0  0  0  0  0  0  0  0
   -4.7520   12.4560   24.5830 C   0  0  0  0  0  1  0  0  0  0  0  0
    1.3330    9.4960   18.4890 C   0  0  0  0  0  0  0  0  0  0  0  0
    0.3360    9.7240   17.4980 N   0  0  0  0  0  0  0  0  0  0  0  0
    2.4740    9.2590   18.0610 O   0  0  0  0  0  0  0  0  0  0  0  0
    0.1430   10.7160   17.1480 H   0  0  0  0  0  0  0  0  0  0  0  0
   -0.2260    8.9560   17.1040 H   0  0  0  0  0  0  0  0  0  0  0  0
    1.6430    7.2780   20.2430 C   0  0  0  0  0  2  0  0  0  0  0  0
    2.9360    7.0000   19.7960 N   0  0  0  0  0  0  0  0  0  0  0  0
    3.7310    5.8600   19.6200 C   0  0  0  0  0  0  0  0  0  0  0  0
    3.5040    7.9310   19.4940 H   0  0  0  0  0  0  0  0  0  0  0  0
    3.2950    4.7640   19.9320 O   0  0  0  0  0  0  0  0  0  0  0  0
    5.0430    5.9730   19.0760 N   0  0  0  0  0  0  0  0  0  0  0  0
    5.3650    6.9460   18.8300 H   0  0  0  0  0  0  0  0  0  0  0  0
    5.9510    4.8790   18.8280 C   0  0  2  0  0  3  0  0  0  0  0  0
    7.3470    5.4160   19.1610 C   0  0  0  0  0  2  0  0  0  0  0  0
    6.0730    4.7260   17.3040 C   0  0  0  0  0  0  0  0  0  0  0  0
    7.5850    6.4050   18.0110 C   0  0  0  0  0  2  0  0  0  0  0  0
    6.9760    5.6400   16.8760 C   0  0  0  0  0  0  0  0  0  0  0  0
    5.4010    3.8960   16.4650 C   0  0  0  0  0  3  0  0  0  0  0  0
    7.2050    5.7110   15.4920 C   0  0  0  0  0  3  0  0  0  0  0  0
    5.6360    3.9790   15.1010 C   0  0  0  0  0  3  0  0  0  0  0  0
    6.5550    4.9050   14.5980 C   0  0  0  0  0  3  0  0  0  0  0  0
  1  7  1  0  0  0  0
  1  2  1  0  0  0  0
  3  2  2  0  0  0  0
  4  3  1  0  0  0  0
  5  6  1  0  0  0  0
  5  4  2  0  0  0  0
  6  1  2  0  0  0  0
  7 10  1  0  0  0  0
  8 13  1  0  0  0  0
  9  8  1  0  0  0  0
 10  8  2  0  0  0  0
 11  9  2  0  0  0  0
 12 11  1  0  0  0  0
 12  7  2  0  0  0  0
 13 14  1  0  0  0  0
 15  5  1  0  0  0  0
 16 15  1  0  0  0  0
 17 15  2  0  0  0  0
 18 16  1  0  0  0  0
 19 16  1  0  0  0  0
 20  4  1  0  0  0  0
 21 20  1  0  0  0  0
 22 21  1  0  0  0  0
 22 24  2  0  0  0  0
 23 21  1  0  0  0  0
 25 22  1  0  0  0  0
 26 25  1  0  0  0  0
 27 25  1  6  0  0  0
 27 28  1  0  0  0  0
 29 27  1  0  0  0  0
 30 28  1  0  0  0  0
 31 29  1  0  0  0  0
 31 30  1  0  0  0  0
 32 29  2  0  0  0  0
 33 31  2  0  0  0  0
 34 32  1  0  0  0  0
 35 34  2  0  0  0  0
 35 33  1  0  0  0  0
M  END
>  <MODEL>
1

>  <REMARK>
 VINA RESULT:    -6.347      0.000      0.000
 INTER + INTRA:          -9.685
 INTER:                  -8.574
 INTRA:                  -1.111
 UNBOUND:                -1.111
 SMILES COc1cccc(-c2ccc(CNC(=O)N[C@@H]3CCc4ccccc43)c(C(N)=O)c2)c1
 SMILES IDX 8 1 9 2 10 3 11 4 26 5 30 6 7 7 3 8 4 9 31 10 5 11 6 12 2 13
 SMILES IDX 1 14 27 15 28 16 29 17 12 20 13 21 14 22 15 24 16 25 17 27
 SMILES IDX 18 28 25 29 19 30 20 31 24 32 21 33 23 34 22 35
 H PARENT 28 18 28 19 13 23 16 26
 Flexibility Score: inf

>  <TORSDO>
F 6

$$$$
GF06
 OpenBabel07182316283D

 37 40  0  0  1  0  0  0  0  0999 V2000
    1.1970    9.2570   21.3750 C   0  0  0  0  0  0  0  0  0  0  0  0
    0.2230    8.8100   22.2810 C   0  0  0  0  0  3  0  0  0  0  0  0
   -0.6640    9.6760   22.8930 C   0  0  0  0  0  3  0  0  0  0  0  0
   -0.6120   11.0240   22.6230 C   0  0  0  0  0  0  0  0  0  0  0  0
    0.3410   11.5210   21.7280 C   0  0  0  0  0  0  0  0  0  0  0  0
    1.2160   10.6050   21.1350 C   0  0  0  0  0  3  0  0  0  0  0  0
    2.0580    8.3620   20.7900 O   0  0  0  0  0  0  0  0  0  0  0  0
    1.9150    7.7290   19.5600 C   0  0  1  0  0  3  0  0  0  0  0  0
    1.9500    8.7150   18.4010 C   0  0  0  0  0  1  0  0  0  0  0  0
    2.9370    6.6260   19.3530 C   0  0  0  0  0  2  0  0  0  0  0  0
    2.3140    5.2830   19.4620 C   0  0  0  0  0  0  0  0  0  0  0  0
    2.1710    4.5550   18.2970 C   0  0  0  0  0  3  0  0  0  0  0  0
    1.8830    4.7360   20.6340 C   0  0  0  0  0  3  0  0  0  0  0  0
    1.6100    3.3050   18.2760 C   0  0  0  0  0  3  0  0  0  0  0  0
    1.3190    3.4800   20.6230 C   0  0  0  0  0  3  0  0  0  0  0  0
    1.1790    2.7610   19.4540 C   0  0  0  0  0  3  0  0  0  0  0  0
    0.4090   12.9250   21.4310 C   0  0  0  0  0  0  0  0  0  0  0  0
   -0.3320   13.4130   20.2970 N   0  0  0  0  0  0  0  0  0  0  0  0
    1.0490   13.7520   22.0660 O   0  0  0  0  0  0  0  0  0  0  0  0
   -1.2730   13.8080   20.4560 H   0  0  0  0  0  0  0  0  0  0  0  0
    0.0510   13.3770   19.3280 H   0  0  0  0  0  0  0  0  0  0  0  0
   -1.5090   12.0080   23.2310 C   0  0  0  0  0  2  0  0  0  0  0  0
   -2.8850   11.8840   22.8290 N   0  0  0  0  0  0  0  0  0  0  0  0
   -3.4410   12.9900   22.0670 C   0  0  0  0  0  0  0  0  0  0  0  0
   -3.5280   11.0960   23.0210 H   0  0  0  0  0  0  0  0  0  0  0  0
   -2.6710   13.9510   21.8270 O   0  0  0  0  0  0  0  0  0  0  0  0
   -4.7930   12.9600   21.6250 N   0  0  0  0  0  0  0  0  0  0  0  0
   -5.3980   12.1360   21.8480 H   0  0  0  0  0  0  0  0  0  0  0  0
   -5.3610   14.0540   20.8660 C   0  0  2  0  0  3  0  0  0  0  0  0
   -6.5820   14.5600   21.5630 C   0  0  0  0  0  2  0  0  0  0  0  0
   -5.8240   13.6540   19.5390 C   0  0  0  0  0  0  0  0  0  0  0  0
   -7.4700   15.1090   20.4320 C   0  0  0  0  0  2  0  0  0  0  0  0
   -7.0280   14.2650   19.2910 C   0  0  0  0  0  0  0  0  0  0  0  0
   -5.2340   12.8090   18.5920 C   0  0  0  0  0  3  0  0  0  0  0  0
   -7.6770   14.0410   18.0740 C   0  0  0  0  0  3  0  0  0  0  0  0
   -5.8790   12.5920   17.3920 C   0  0  0  0  0  3  0  0  0  0  0  0
   -7.0980   13.2090   17.1390 C   0  0  0  0  0  3  0  0  0  0  0  0
  1  2  1  0  0  0  0
  2  3  2  0  0  0  0
  4  3  1  0  0  0  0
  4 22  1  0  0  0  0
  5  4  2  0  0  0  0
  6  1  2  0  0  0  0
  6  5  1  0  0  0  0
  7  1  1  0  0  0  0
  8  9  1  6  0  0  0
  8  7  1  0  0  0  0
 10 11  1  0  0  0  0
 10  8  1  0  0  0  0
 11 13  1  0  0  0  0
 12 11  2  0  0  0  0
 14 12  1  0  0  0  0
 14 16  2  0  0  0  0
 15 13  2  0  0  0  0
 16 15  1  0  0  0  0
 17  5  1  0  0  0  0
 17 19  2  0  0  0  0
 18 20  1  0  0  0  0
 18 17  1  0  0  0  0
 21 18  1  0  0  0  0
 23 25  1  0  0  0  0
 23 22  1  0  0  0  0
 24 23  1  0  0  0  0
 26 24  2  0  0  0  0
 27 28  1  0  0  0  0
 27 24  1  0  0  0  0
 29 30  1  0  0  0  0
 29 27  1  1  0  0  0
 31 29  1  0  0  0  0
 32 30  1  0  0  0  0
 33 31  1  0  0  0  0
 33 32  1  0  0  0  0
 34 31  2  0  0  0  0
 35 33  2  0  0  0  0
 36 34  1  0  0  0  0
 37 36  2  0  0  0  0
 37 35  1  0  0  0  0
M  END
>  <MODEL>
1

>  <REMARK>
 VINA RESULT:    -5.922      0.000      0.000
 INTER + INTRA:         -10.186
 INTER:                  -8.692
 INTRA:                  -1.493
 UNBOUND:                -1.493
 SMILES C[C@@H](Cc1ccccc1)Oc1ccc(CNC(=O)N[C@@H]2CCc3ccccc32)c(C(N)=O)c1
 SMILES IDX 11 1 12 2 13 3 14 4 29 5 33 6 10 7 2 8 1 9 3 10 4 11 5 12
 SMILES IDX 9 13 6 14 8 15 7 16 30 17 31 18 32 19 15 22 16 23 17 24
 SMILES IDX 18 26 19 27 20 29 21 30 28 31 22 32 23 33 27 34 24 35 26 36
 SMILES IDX 25 37
 H PARENT 31 20 31 21 16 25 19 28
 Flexibility Score: inf

>  <TORSDO>
F 8

$$$$
GF07
 OpenBabel07182316283D

 35 38  0  0  1  0  0  0  0  0999 V2000
    0.9630   10.4080   18.7740 C   0  0  0  0  0  2  0  0  0  0  0  0
    0.1910   11.1000   19.7900 C   0  0  0  0  0  0  0  0  0  0  0  0
   -1.2410   12.3930   21.7100 C   0  0  0  0  0  0  0  0  0  0  0  0
   -0.0670   11.8140   22.0980 C   0  0  0  0  0  3  0  0  0  0  0  0
   -1.7190   12.3550   20.4410 C   0  0  0  0  0  3  0  0  0  0  0  0
    0.6510   11.1570   21.0920 C   0  0  0  0  0  3  0  0  0  0  0  0
   -1.0110   11.6990   19.4260 C   0  0  0  0  0  0  0  0  0  0  0  0
   -2.0130   13.0670   22.7450 C   0  0  0  0  0  0  0  0  0  0  0  0
   -0.6410   15.1240   22.4540 C   0  0  0  0  0  1  0  0  0  0  0  0
   -1.7350   14.3490   23.0780 C   0  0  0  0  0  0  0  0  0  0  0  0
   -2.5340   14.9260   24.0750 C   0  0  0  0  0  3  0  0  0  0  0  0
   -3.5340   14.2070   24.6620 C   0  0  0  0  0  3  0  0  0  0  0  0
   -3.0250   12.3060   23.3230 C   0  0  0  0  0  3  0  0  0  0  0  0
   -3.7860   12.9020   24.2940 C   0  0  0  0  0  0  0  0  0  0  0  0
   -4.7720   12.1540   24.8530 F   0  0  0  0  0  0  0  0  0  0  0  0
   -1.5830   11.6710   18.0930 C   0  0  0  0  0  0  0  0  0  0  0  0
   -1.3500   12.6560   17.1210 N   0  0  0  0  0  0  0  0  0  0  0  0
   -2.3510   10.6800   17.7940 O   0  0  0  0  0  0  0  0  0  0  0  0
   -1.9260   13.5130   17.0190 H   0  0  0  0  0  0  0  0  0  0  0  0
   -0.5420   12.4770   16.4480 H   0  0  0  0  0  0  0  0  0  0  0  0
    1.6130    9.2140   19.2640 N   0  0  0  0  0  0  0  0  0  0  0  0
    2.1980    8.2890   18.2980 C   0  0  0  0  0  0  0  0  0  0  0  0
    1.7330    8.9020   20.2300 H   0  0  0  0  0  0  0  0  0  0  0  0
    2.0940    8.5900   17.1000 O   0  0  0  0  0  0  0  0  0  0  0  0
    2.8570    7.1050   18.6740 N   0  0  0  0  0  0  0  0  0  0  0  0
    2.9140    6.9060   19.7050 H   0  0  0  0  0  0  0  0  0  0  0  0
    3.4400    6.1830   17.7180 C   0  0  2  0  0  3  0  0  0  0  0  0
    3.0850    4.7570   18.0720 C   0  0  0  0  0  2  0  0  0  0  0  0
    4.9150    6.2110   17.7680 C   0  0  0  0  0  0  0  0  0  0  0  0
    4.2660    4.1960   18.8060 C   0  0  0  0  0  2  0  0  0  0  0  0
    5.4020    5.0810   18.3840 C   0  0  0  0  0  0  0  0  0  0  0  0
    5.8150    7.1740   17.2990 C   0  0  0  0  0  3  0  0  0  0  0  0
    6.7640    4.9070   18.5330 C   0  0  0  0  0  3  0  0  0  0  0  0
    7.1680    6.9790   17.4570 C   0  0  0  0  0  3  0  0  0  0  0  0
    7.6550    5.8500   18.0740 C   0  0  0  0  0  3  0  0  0  0  0  0
  1 21  1  0  0  0  0
  1  2  1  0  0  0  0
  2  6  1  0  0  0  0
  3  4  1  0  0  0  0
  3  8  1  0  0  0  0
  5  3  2  0  0  0  0
  6  4  2  0  0  0  0
  7  2  2  0  0  0  0
  7  5  1  0  0  0  0
  8 10  2  0  0  0  0
  8 13  1  0  0  0  0
  9 10  1  0  0  0  0
 10 11  1  0  0  0  0
 11 12  2  0  0  0  0
 13 14  2  0  0  0  0
 14 12  1  0  0  0  0
 14 15  1  0  0  0  0
 16  7  1  0  0  0  0
 17 16  1  0  0  0  0
 18 16  2  0  0  0  0
 19 17  1  0  0  0  0
 20 17  1  0  0  0  0
 21 23  1  0  0  0  0
 22 25  1  0  0  0  0
 22 21  1  0  0  0  0
 24 22  2  0  0  0  0
 25 26  1  0  0  0  0
 27 29  1  0  0  0  0
 27 28  1  0  0  0  0
 27 25  1  1  0  0  0
 28 30  1  0  0  0  0
 29 31  1  0  0  0  0
 31 33  2  0  0  0  0
 31 30  1  0  0  0  0
 32 34  1  0  0  0  0
 32 29  2  0  0  0  0
 34 35  2  0  0  0  0
 35 33  1  0  0  0  0
M  END
>  <MODEL>
1

>  <REMARK>
 VINA RESULT:    -6.717      0.000      0.000
 INTER + INTRA:          -9.666
 INTER:                  -8.680
 INTRA:                  -0.986
 UNBOUND:                -0.986
 SMILES Cc1ccc(F)cc1-c1ccc(CNC(=O)N[C@@H]2CCc3ccccc32)c(C(N)=O)c1
 SMILES IDX 13 1 12 2 9 3 10 4 31 5 11 6 27 7 8 8 1 9 2 10 3 11 4 12
 SMILES IDX 7 13 5 14 6 15 28 16 29 17 30 18 14 21 15 22 16 24 17 25
 SMILES IDX 18 27 19 28 26 29 20 30 21 31 25 32 22 33 24 34 23 35
 H PARENT 29 19 29 20 14 23 17 26
 Flexibility Score: inf

>  <TORSDO>
F 5

$$$$
GF08
 OpenBabel07182316283D

 39 42  0  0  1  0  0  0  0  0999 V2000
    3.3740    8.2170   17.9530 N   0  0  0  0  0  0  0  0  0  0  0  0
    2.0260    8.7060   18.1270 C   0  0  0  0  0  0  0  0  0  0  0  0
    1.0680    8.2050   17.5100 O   0  0  0  0  0  0  0  0  0  0  0  0
    1.7970    9.7690   19.0100 N   0  0  0  0  0  0  0  0  0  0  0  0
    4.1080    8.6840   18.4980 H   0  0  0  0  0  0  0  0  0  0  0  0
    2.5920   10.1950   19.5300 H   0  0  0  0  0  0  0  0  0  0  0  0
    3.5980    7.1430   17.0580 C   0  0  0  0  0  2  0  0  0  0  0  0
    4.8160    6.3760   17.3200 C   0  0  0  0  0  0  0  0  0  0  0  0
    4.8410    5.3440   18.2660 C   0  0  0  0  0  0  0  0  0  0  0  0
    6.0010    4.6080   18.5000 C   0  0  0  0  0  3  0  0  0  0  0  0
    7.1600    4.8620   17.8170 C   0  0  0  0  0  0  0  0  0  0  0  0
    5.9870    6.6060   16.6540 C   0  0  0  0  0  3  0  0  0  0  0  0
    8.3070    4.1480   18.0350 F   0  0  0  0  0  0  0  0  0  0  0  0
    7.1440    5.8620   16.8970 C   0  0  0  0  0  3  0  0  0  0  0  0
    3.6740    5.0100   19.0360 C   0  0  0  0  0  0  0  0  0  0  0  0
    3.3110    5.7600   20.2060 N   0  0  0  0  0  0  0  0  0  0  0  0
    2.3970    6.2320   20.2790 H   0  0  0  0  0  0  0  0  0  0  0  0
    3.9840    5.8310   21.0030 H   0  0  0  0  0  0  0  0  0  0  0  0
    2.9240    4.0610   18.7310 O   0  0  0  0  0  0  0  0  0  0  0  0
    0.4890   10.3400   19.2630 C   0  0  2  0  0  3  0  0  0  0  0  0
    0.4460   11.8140   19.0640 C   0  0  0  0  0  2  0  0  0  0  0  0
    0.1830   10.1690   20.7020 C   0  0  0  0  0  0  0  0  0  0  0  0
   -0.5810   12.3230   20.0920 C   0  0  2  0  0  3  0  0  0  0  0  0
   -0.4340   11.3050   21.1690 C   0  0  0  0  0  0  0  0  0  0  0  0
    0.4210    9.0880   21.5640 C   0  0  0  0  0  3  0  0  0  0  0  0
   -0.8000   11.3270   22.4970 C   0  0  0  0  0  3  0  0  0  0  0  0
    0.0430    9.1540   22.8640 C   0  0  0  0  0  3  0  0  0  0  0  0
   -0.5700   10.2650   23.3550 C   0  0  0  0  0  3  0  0  0  0  0  0
   -1.8970   12.3180   19.4930 N   0  0  0  0  0  0  0  0  0  0  0  0
   -2.9990   13.0380   19.9920 C   0  0  0  0  0  0  0  0  0  0  0  0
   -2.0370   11.7450   18.6380 H   0  0  0  0  0  0  0  0  0  0  0  0
   -2.8160   13.7250   21.0220 O   0  0  0  0  0  0  0  0  0  0  0  0
   -4.3410   13.0470   19.4010 C   0  0  0  0  0  0  0  0  0  0  0  0
   -5.3090   13.9370   19.8070 C   0  0  0  0  0  3  0  0  0  0  0  0
   -4.6360   12.1340   18.4130 C   0  0  0  0  0  3  0  0  0  0  0  0
   -6.5440   13.8820   19.2040 C   0  0  0  0  0  3  0  0  0  0  0  0
   -5.8790   12.1020   17.8270 C   0  0  0  0  0  3  0  0  0  0  0  0
   -6.8720   12.9800   18.2100 C   0  0  0  0  0  0  0  0  0  0  0  0
   -8.1170   12.9580   17.6330 F   0  0  0  0  0  0  0  0  0  0  0  0
  1  2  1  0  0  0  0
  1  5  1  0  0  0  0
  2  4  1  0  0  0  0
  3  2  2  0  0  0  0
  4  6  1  0  0  0  0
  7  8  1  0  0  0  0
  7  1  1  0  0  0  0
  8  9  1  0  0  0  0
  9 10  2  0  0  0  0
  9 15  1  0  0  0  0
 11 13  1  0  0  0  0
 11 10  1  0  0  0  0
 12 14  1  0  0  0  0
 12  8  2  0  0  0  0
 14 11  2  0  0  0  0
 15 16  1  0  0  0  0
 16 17  1  0  0  0  0
 16 18  1  0  0  0  0
 19 15  2  0  0  0  0
 20  4  1  1  0  0  0
 20 22  1  0  0  0  0
 21 20  1  0  0  0  0
 21 23  1  0  0  0  0
 22 24  2  0  0  0  0
 22 25  1  0  0  0  0
 23 29  1  6  0  0  0
 23 24  1  0  0  0  0
 24 26  1  0  0  0  0
 25 27  2  0  0  0  0
 26 28  2  0  0  0  0
 27 28  1  0  0  0  0
 29 30  1  0  0  0  0
 30 32  2  0  0  0  0
 31 29  1  0  0  0  0
 33 34  1  0  0  0  0
 33 30  1  0  0  0  0
 35 33  2  0  0  0  0
 36 34  2  0  0  0  0
 37 38  2  0  0  0  0
 37 35  1  0  0  0  0
 38 36  1  0  0  0  0
 39 38  1  0  0  0  0
M  END
>  <MODEL>
1

>  <REMARK>
 VINA RESULT:    -5.994      0.000      0.000
 INTER + INTRA:          -9.172
 INTER:                  -8.097
 INTRA:                  -1.075
 UNBOUND:                -1.075
 SMILES NC(=O)c1cc(F)ccc1CNC(=O)N[C@@H]1C[C@@H](NC(=O)c2ccc(F)cc2)c2ccccc21
 SMILES IDX 12 1 13 2 14 3 15 4 11 7 10 8 4 9 5 10 6 11 9 12 7 13 8 14
 SMILES IDX 2 15 1 16 3 19 16 20 17 21 34 22 18 23 29 24 33 25 30 26
 SMILES IDX 32 27 31 28 19 29 20 30 21 32 22 33 23 34 28 35 24 36 27 37
 SMILES IDX 25 38 26 39
 H PARENT 12 5 15 6 1 17 1 18 19 31
 Flexibility Score: inf

>  <TORSDO>
F 6

$$$$
GF09
 OpenBabel07182316283D

 36 39  0  0  1  0  0  0  0  0999 V2000
   -0.1160    9.6720   17.6620 N   0  0  0  0  0  0  0  0  0  0  0  0
    1.2480    9.3500   17.9060 C   0  0  0  0  0  0  0  0  0  0  0  0
    1.9950   10.1790   18.4890 O   0  0  0  0  0  0  0  0  0  0  0  0
    1.8090    8.0990   17.5080 N   0  0  0  0  0  0  0  0  0  0  0  0
   -0.7120    8.9700   17.1840 H   0  0  0  0  0  0  0  0  0  0  0  0
    1.1350    7.4410   17.0310 H   0  0  0  0  0  0  0  0  0  0  0  0
   -0.7040   10.9420   18.0570 C   0  0  1  0  0  3  0  0  0  0  0  0
   -4.2550   11.9310   18.1790 C   0  0  0  0  0  0  0  0  0  0  0  0
   -4.6790   11.6250   16.9030 C   0  0  0  0  0  3  0  0  0  0  0  0
   -2.9040   11.6620   18.4500 C   0  0  0  0  0  0  0  0  0  0  0  0
   -3.8580   11.0900   15.9310 C   0  0  0  0  0  3  0  0  0  0  0  0
   -2.0600   11.1280   17.4970 C   0  0  0  0  0  0  0  0  0  0  0  0
   -2.1310   11.8660   19.6810 C   0  0  0  0  0  2  0  0  0  0  0  0
   -2.5350   10.8360   16.2210 C   0  0  0  0  0  3  0  0  0  0  0  0
   -1.0180   10.8480   19.5560 C   0  0  0  0  0  2  0  0  0  0  0  0
   -5.0990   12.5020   19.2110 C   0  0  0  0  0  0  0  0  0  0  0  0
   -6.5240   10.4850   19.1220 C   0  0  0  0  0  1  0  0  0  0  0  0
   -6.1880   11.8130   19.6660 C   0  0  0  0  0  0  0  0  0  0  0  0
   -7.0020   12.3140   20.6370 N   0  0  0  0  0  0  0  0  0  0  0  0
   -6.7500   13.5120   21.1800 C   0  0  0  0  0  3  0  0  0  0  0  0
   -4.8550   13.7050   19.7630 N   0  0  0  0  0  0  0  0  0  0  0  0
   -5.6560   14.2150   20.7320 C   0  0  0  0  0  0  0  0  0  0  0  0
   -5.3200   15.9120   21.5160 Br  0  0  0  0  0  0  0  0  0  0  0  0
    3.1990    7.7410   17.7300 C   0  0  0  0  0  2  0  0  0  0  0  0
    3.4590    6.2900   17.6520 C   0  0  0  0  0  0  0  0  0  0  0  0
    2.5950    5.4060   18.2850 C   0  0  0  0  0  3  0  0  0  0  0  0
    4.5590    5.8000   16.9810 C   0  0  0  0  0  0  0  0  0  0  0  0
    2.7970    4.0290   18.2660 C   0  0  0  0  0  3  0  0  0  0  0  0
    4.7560    4.4070   16.9670 C   0  0  0  0  0  3  0  0  0  0  0  0
    3.8950    3.5540   17.5940 C   0  0  0  0  0  0  0  0  0  0  0  0
    4.1620    2.2170   17.5300 F   0  0  0  0  0  0  0  0  0  0  0  0
    5.5060    6.6590   16.3030 C   0  0  0  0  0  0  0  0  0  0  0  0
    6.6670    7.2370   16.8360 N   0  0  0  0  0  0  0  0  0  0  0  0
    5.2560    6.9220   15.0710 O   0  0  0  0  0  0  0  0  0  0  0  0
    7.5860    6.7560   16.9030 H   0  0  0  0  0  0  0  0  0  0  0  0
    6.6480    8.2300   17.1910 H   0  0  0  0  0  0  0  0  0  0  0  0
  1  2  1  0  0  0  0
  2  3  2  0  0  0  0
  4 24  1  0  0  0  0
  4  2  1  0  0  0  0
  5  1  1  0  0  0  0
  6  4  1  0  0  0  0
  7  1  1  6  0  0  0
  7 15  1  0  0  0  0
  8 10  1  0  0  0  0
  8 16  1  0  0  0  0
  9  8  2  0  0  0  0
 10 13  1  0  0  0  0
 11 14  2  0  0  0  0
 11  9  1  0  0  0  0
 12  7  1  0  0  0  0
 12 10  2  0  0  0  0
 14 12  1  0  0  0  0
 15 13  1  0  0  0  0
 16 18  2  0  0  0  0
 16 21  1  0  0  0  0
 17 18  1  0  0  0  0
 18 19  1  0  0  0  0
 19 20  2  0  0  0  0
 21 22  2  0  0  0  0
 22 20  1  0  0  0  0
 22 23  1  0  0  0  0
 25 24  1  0  0  0  0
 25 26  1  0  0  0  0
 27 25  2  0  0  0  0
 28 26  2  0  0  0  0
 29 27  1  0  0  0  0
 29 30  2  0  0  0  0
 30 28  1  0  0  0  0
 31 30  1  0  0  0  0
 32 33  1  0  0  0  0
 32 27  1  0  0  0  0
 33 35  1  0  0  0  0
 33 36  1  0  0  0  0
 34 32  2  0  0  0  0
M  END
>  <MODEL>
1

>  <REMARK>
 VINA RESULT:    -6.593      0.000      0.000
 INTER + INTRA:          -8.804
 INTER:                  -8.520
 INTRA:                  -0.284
 UNBOUND:                -0.284
 SMILES Cc1ncc(Br)nc1-c1cccc2c1CC[C@H]2NC(=O)NCc1ccc(F)cc1C(N)=O
 SMILES IDX 18 1 19 2 20 3 21 4 17 7 9 8 10 9 14 10 11 11 13 12 15 13
 SMILES IDX 12 14 16 15 8 16 1 17 2 18 3 19 4 20 7 21 5 22 6 23 22 24
 SMILES IDX 23 25 24 26 29 27 25 28 28 29 26 30 27 31 30 32 31 33 32 34
 H PARENT 18 5 21 6 31 35 31 36
 Flexibility Score: inf

>  <TORSDO>
F 5

$$$$
GF10
 OpenBabel07182316283D

 39 42  0  0  1  0  0  0  0  0999 V2000
   -0.2720   10.8300   22.0210 C   0  0  0  0  0  0  0  0  0  0  0  0
    0.4260    9.8040   22.6650 C   0  0  0  0  0  3  0  0  0  0  0  0
    1.1330    8.8580   21.9710 C   0  0  0  0  0  3  0  0  0  0  0  0
    1.1930    8.8680   20.5980 C   0  0  0  0  0  0  0  0  0  0  0  0
    0.5040    9.8800   19.9610 C   0  0  0  0  0  0  0  0  0  0  0  0
   -0.2180   10.8470   20.6470 C   0  0  0  0  0  3  0  0  0  0  0  0
    0.6760    9.7570   18.4680 C   0  0  0  0  0  2  0  0  0  0  0  0
    2.0660    9.0900   18.4620 C   0  0  0  0  0  2  0  0  0  0  0  0
    1.8120    8.0600   19.5450 C   0  0  1  0  0  3  0  0  0  0  0  0
   -1.0020   11.7810   22.7700 N   0  0  0  0  0  0  0  0  0  0  0  0
   -1.1530   11.5970   23.7870 H   0  0  0  0  0  0  0  0  0  0  0  0
   -1.5620   13.0000   22.2420 C   0  0  2  0  0  3  0  0  0  0  0  0
   -1.0700   14.1560   23.0780 C   0  0  0  0  0  1  0  0  0  0  0  0
   -3.0420   12.9730   22.2180 C   0  0  0  0  0  0  0  0  0  0  0  0
   -3.8500   12.9740   23.3240 C   0  0  0  0  0  3  0  0  0  0  0  0
   -3.6540   12.9530   20.9680 C   0  0  0  0  0  0  0  0  0  0  0  0
   -5.2230   12.9560   23.1810 C   0  0  0  0  0  3  0  0  0  0  0  0
   -5.0180   12.9340   20.8500 C   0  0  0  0  0  3  0  0  0  0  0  0
   -2.8750   12.9500   19.8520 F   0  0  0  0  0  0  0  0  0  0  0  0
   -5.8600   12.9350   21.9580 C   0  0  0  0  0  3  0  0  0  0  0  0
    2.9530    7.2990   19.9060 N   0  0  0  0  0  0  0  0  0  0  0  0
    3.3370    6.1370   19.2050 C   0  0  0  0  0  0  0  0  0  0  0  0
    3.5290    7.6030   20.7150 H   0  0  0  0  0  0  0  0  0  0  0  0
    2.6190    5.8020   18.2320 O   0  0  0  0  0  0  0  0  0  0  0  0
    4.4590    5.3440   19.5280 N   0  0  0  0  0  0  0  0  0  0  0  0
    5.0520    5.6200   20.3530 H   0  0  0  0  0  0  0  0  0  0  0  0
    4.8530    4.1620   18.7860 C   0  0  0  0  0  2  0  0  0  0  0  0
    5.6000    4.4320   17.5540 C   0  0  0  0  0  0  0  0  0  0  0  0
    5.0720    4.0110   16.3380 C   0  0  0  0  0  3  0  0  0  0  0  0
    6.7890    5.1180   17.6470 C   0  0  0  0  0  0  0  0  0  0  0  0
    5.7490    4.2790   15.1620 C   0  0  0  0  0  3  0  0  0  0  0  0
    7.4570    5.3800   16.4490 C   0  0  0  0  0  3  0  0  0  0  0  0
    6.9400    4.9650   15.2440 C   0  0  0  0  0  0  0  0  0  0  0  0
    7.5800    5.2130   14.0640 F   0  0  0  0  0  0  0  0  0  0  0  0
    7.4040    5.5840   18.8710 C   0  0  0  0  0  0  0  0  0  0  0  0
    8.2860    6.6600   19.0240 N   0  0  0  0  0  0  0  0  0  0  0  0
    7.1260    4.9570   19.9570 O   0  0  0  0  0  0  0  0  0  0  0  0
    7.9090    7.6140   19.1810 H   0  0  0  0  0  0  0  0  0  0  0  0
    9.3190    6.5460   18.9940 H   0  0  0  0  0  0  0  0  0  0  0  0
  1  2  1  0  0  0  0
  1 10  1  0  0  0  0
  3  2  2  0  0  0  0
  4  3  1  0  0  0  0
  5  4  2  0  0  0  0
  5  6  1  0  0  0  0
  6  1  2  0  0  0  0
  7  5  1  0  0  0  0
  8  7  1  0  0  0  0
  8  9  1  0  0  0  0
  9 21  1  1  0  0  0
  9  4  1  0  0  0  0
 10 11  1  0  0  0  0
 12 10  1  0  0  0  0
 12 13  1  1  0  0  0
 14 12  1  0  0  0  0
 14 15  1  0  0  0  0
 16 14  2  0  0  0  0
 17 15  2  0  0  0  0
 18 16  1  0  0  0  0
 18 20  2  0  0  0  0
 19 16  1  0  0  0  0
 20 17  1  0  0  0  0
 21 23  1  0  0  0  0
 22 25  1  0  0  0  0
 22 21  1  0  0  0  0
 24 22  2  0  0  0  0
 25 26  1  0  0  0  0
 27 25  1  0  0  0  0
 28 30  1  0  0  0  0
 28 27  1  0  0  0  0
 29 28  2  0  0  0  0
 30 35  1  0  0  0  0
 31 33  2  0  0  0  0
 31 29  1  0  0  0  0
 32 30  2  0  0  0  0
 33 32  1  0  0  0  0
 34 33  1  0  0  0  0
 35 36  1  0  0  0  0
 35 37  2  0  0  0  0
 36 38  1  0  0  0  0
 39 36  1  0  0  0  0
M  END
>  <MODEL>
1

>  <REMARK>
 VINA RESULT:    -7.115      0.000      0.000
 INTER + INTRA:         -10.959
 INTER:                 -10.027
 INTRA:                  -0.932
 UNBOUND:                -0.932
 SMILES C[C@@H](Nc1ccc2c(c1)CC[C@H]2NC(=O)NCc1ccc(F)cc1C(N)=O)c1ccccc1F
 SMILES IDX 4 1 5 2 6 3 7 4 8 5 9 6 10 7 11 8 12 9 3 10 2 12 1 13 28 14
 SMILES IDX 29 15 33 16 30 17 32 18 34 19 31 20 13 21 14 22 15 24 16 25
 SMILES IDX 17 27 18 28 19 29 24 30 20 31 23 32 21 33 22 34 25 35 26 36
 SMILES IDX 27 37
 H PARENT 3 11 13 23 16 26 26 38 26 39
 Flexibility Score: inf

>  <TORSDO>
F 7

$$$$
LB01
 OpenBabel07182316283D

 28 31  0  0  1  0  0  0  0  0999 V2000
   -3.7620   11.9210   18.6010 C   0  0  2  0  0  3  0  0  0  0  0  0
   -2.8410   12.5590   19.6400 C   0  0  0  0  0  2  0  0  0  0  0  0
   -1.7050   11.5680   19.6220 C   0  0  1  0  0  3  0  0  0  0  0  0
   -1.4200   11.5430   18.1080 C   0  0  0  0  0  2  0  0  0  0  0  0
   -2.8080   11.6300   17.4960 C   0  0  1  0  0  3  0  0  0  0  0  0
   -4.7940   12.8140   18.1710 N   0  0  0  0  0  0  0  0  0  0  0  0
   -4.4140   13.3310   17.3390 H   0  0  0  0  0  0  0  0  0  0  0  0
   -5.9930   12.1050   17.7560 C   0  0  0  0  0  2  0  0  0  0  0  0
   -6.5230   11.3880   18.9420 C   0  0  0  0  0  0  0  0  0  0  0  0
   -7.7840    8.5680   20.8450 C   0  0  0  0  0  1  0  0  0  0  0  0
   -7.3150    9.8560   20.3320 N   0  0  0  0  0  0  0  0  0  0  0  0
   -6.8870   10.0570   19.0810 C   0  0  0  0  0  3  0  0  0  0  0  0
   -7.2290   11.0020   20.9710 N   0  0  0  0  0  0  0  0  0  0  0  0
   -6.7590   11.9200   20.1520 N   0  0  0  0  0  0  0  0  0  0  0  0
   -3.0460   10.4060   16.8740 O   0  0  0  0  0  0  0  0  0  0  0  0
   -3.8520   10.0310   17.2960 H   0  0  0  0  0  0  0  0  0  0  0  0
   -0.5010   12.0360   20.3750 C   0  0  0  0  0  2  0  0  0  0  0  0
   -0.3850   11.3050   21.6010 N   0  0  0  0  0  0  0  0  0  0  0  0
    0.3840   10.1750   21.7130 C   0  0  0  0  0  3  0  0  0  0  0  0
   -0.9080   11.5180   22.7920 C   0  0  0  0  0  0  0  0  0  0  0  0
    0.3300    9.6870   22.9980 C   0  0  0  0  0  3  0  0  0  0  0  0
   -0.4750   10.5310   23.6540 N   0  0  0  0  0  0  0  0  0  0  0  0
   -1.7710   12.5780   23.2750 C   0  0  0  0  0  0  0  0  0  0  0  0
   -3.1180   12.2860   23.5680 C   0  0  0  0  0  3  0  0  0  0  0  0
   -1.4260   13.8890   23.4620 C   0  0  0  0  0  3  0  0  0  0  0  0
   -4.0190   13.2140   24.0020 C   0  0  0  0  0  3  0  0  0  0  0  0
   -2.3600   14.8420   23.9110 C   0  0  0  0  0  3  0  0  0  0  0  0
   -3.6630   14.5270   24.1880 C   0  0  0  0  0  3  0  0  0  0  0  0
  1  6  1  6  0  0  0
  1  2  1  0  0  0  0
  3  2  1  0  0  0  0
  3 17  1  1  0  0  0
  4  3  1  0  0  0  0
  5 15  1  1  0  0  0
  5  4  1  0  0  0  0
  5  1  1  0  0  0  0
  7  6  1  0  0  0  0
  8  6  1  0  0  0  0
  8  9  1  0  0  0  0
  9 12  2  0  0  0  0
  9 14  1  0  0  0  0
 11 10  1  0  0  0  0
 11 13  1  0  0  0  0
 12 11  1  0  0  0  0
 14 13  2  0  0  0  0
 15 16  1  0  0  0  0
 17 18  1  0  0  0  0
 18 19  1  0  0  0  0
 18 20  1  0  0  0  0
 19 21  2  0  0  0  0
 20 23  1  0  0  0  0
 20 22  2  0  0  0  0
 21 22  1  0  0  0  0
 23 25  2  0  0  0  0
 23 24  1  0  0  0  0
 24 26  2  0  0  0  0
 25 27  1  0  0  0  0
 26 28  1  0  0  0  0
 27 28  2  0  0  0  0
M  END
>  <MODEL>
1

>  <REMARK>
 VINA RESULT:    -5.409      0.000      0.000
 INTER + INTRA:          -8.801
 INTER:                  -7.465
 INTRA:                  -1.336
 UNBOUND:                -1.336
 SMILES Cn1cc(CN[C@@H]2C[C@H](Cn3ccnc3-c3ccccc3)C[C@H]2O)nn1
 SMILES IDX 7 1 8 2 9 3 22 4 23 5 6 6 5 8 4 9 1 10 2 11 3 12 26 13 25 14
 SMILES IDX 24 15 10 17 11 18 12 19 15 20 13 21 14 22 16 23 17 24 21 25
 SMILES IDX 18 26 20 27 19 28
 H PARENT 6 7 24 16
 Flexibility Score: inf

>  <TORSDO>
F 7

$$$$
LB02
 OpenBabel07182316283D

 29 32  0  0  1  0  0  0  0  0999 V2000
    4.2250    4.9560   19.2140 N   0  0  0  0  0  0  0  0  0  0  0  0
    2.9290    5.2450   19.7690 C   0  0  0  0  0  0  0  0  0  0  0  0
    2.4340    4.9270   20.8790 O   0  0  0  0  0  0  0  0  0  0  0  0
    2.1350    6.0530   18.7870 C   0  0  0  0  0  2  0  0  0  0  0  0
    3.2000    6.5590   17.8790 C   0  0  2  0  0  3  0  0  0  0  0  0
    4.5470    6.0090   18.3380 C   0  0  2  0  0  3  0  0  0  0  0  0
    4.9930    3.7970   19.5610 C   0  0  0  0  0  2  0  0  0  0  0  0
    4.2560    2.5230   19.2750 C   0  0  0  0  0  2  0  0  0  0  0  0
    3.9090    2.3640   17.9640 O   0  0  0  0  0  0  0  0  0  0  0  0
    2.5660    2.1670   17.7060 C   0  0  0  0  0  1  0  0  0  0  0  0
    5.3500    5.7480   17.1340 C   0  0  0  0  0  0  0  0  0  0  0  0
    6.5790    6.3390   16.8560 C   0  0  0  0  0  3  0  0  0  0  0  0
    5.1400    4.8990   16.0600 C   0  0  0  0  0  3  0  0  0  0  0  0
    7.0270    5.8280   15.6680 N   0  0  0  0  0  0  0  0  0  0  0  0
    6.1600    4.9700   15.2040 N   0  0  0  0  0  0  0  0  0  0  0  0
    6.3580    4.2450   13.9540 C   0  0  0  0  0  1  0  0  0  0  0  0
    3.1740    8.0320   17.7160 C   0  0  0  0  0  2  0  0  0  0  0  0
    1.8870    8.6000   17.3910 N   0  0  0  0  0  0  0  0  0  0  0  0
    1.7550    8.5740   16.3490 H   0  0  0  0  0  0  0  0  0  0  0  0
    1.8440    9.9950   17.7800 C   0  0  0  0  0  2  0  0  0  0  0  0
    1.1540   10.1600   19.0850 C   0  0  0  0  0  0  0  0  0  0  0  0
    0.4260   11.2010   19.5590 C   0  0  0  0  0  3  0  0  0  0  0  0
    1.2070    9.2350   20.1020 N   0  0  0  0  0  0  0  0  0  0  0  0
    0.0360   10.9380   20.8380 N   0  0  0  0  0  0  0  0  0  0  0  0
    0.5390    9.7180   21.1390 C   0  0  0  0  0  0  0  0  0  0  0  0
   -0.6850   11.6300   21.7670 C   0  0  0  0  0  3  0  0  0  0  0  0
    0.3080    9.1810   22.4060 C   0  0  0  0  0  3  0  0  0  0  0  0
   -0.9380   11.1390   23.0350 C   0  0  0  0  0  3  0  0  0  0  0  0
   -0.4230    9.8960   23.3230 C   0  0  0  0  0  3  0  0  0  0  0  0
  1  7  1  0  0  0  0
  1  2  1  0  0  0  0
  2  3  2  0  0  0  0
  4  2  1  0  0  0  0
  5 17  1  1  0  0  0
  5  6  1  0  0  0  0
  5  4  1  0  0  0  0
  6 11  1  6  0  0  0
  6  1  1  0  0  0  0
  8  7  1  0  0  0  0
  9  8  1  0  0  0  0
 10  9  1  0  0  0  0
 12 11  1  0  0  0  0
 13 11  2  0  0  0  0
 14 12  2  0  0  0  0
 15 14  1  0  0  0  0
 15 13  1  0  0  0  0
 16 15  1  0  0  0  0
 18 17  1  0  0  0  0
 18 20  1  0  0  0  0
 19 18  1  0  0  0  0
 20 21  1  0  0  0  0
 21 22  2  0  0  0  0
 21 23  1  0  0  0  0
 22 24  1  0  0  0  0
 23 25  2  0  0  0  0
 24 25  1  0  0  0  0
 24 26  1  0  0  0  0
 25 27  1  0  0  0  0
 26 28  2  0  0  0  0
 27 29  2  0  0  0  0
 28 29  1  0  0  0  0
M  END
>  <MODEL>
1

>  <REMARK>
 VINA RESULT:    -4.244      0.000      0.000
 INTER + INTRA:          -7.513
 INTER:                  -6.229
 INTRA:                  -1.284
 UNBOUND:                -1.284
 SMILES COCCN1C(=O)C[C@@H](CNCc2cn3ccccc3n2)[C@@H]1c1cnn(C)c1
 SMILES IDX 5 1 6 2 7 3 8 4 9 5 22 6 4 7 3 8 2 9 1 10 23 11 24 12 28 13
 SMILES IDX 25 14 26 15 27 16 10 17 11 18 12 20 13 21 14 22 21 23 15 24
 SMILES IDX 20 25 16 26 19 27 17 28 18 29
 H PARENT 11 19
 Flexibility Score: inf

>  <TORSDO>
F 8

$$$$
LB03
 OpenBabel07182316283D

 28 31  0  0  1  0  0  0  0  0999 V2000
   -3.7520   11.2730   17.3670 C   0  0  0  0  0  0  0  0  0  0  0  0
   -3.1740   10.1160   16.8950 C   0  0  0  0  0  3  0  0  0  0  0  0
   -1.8910    9.7660   17.2530 C   0  0  0  0  0  3  0  0  0  0  0  0
   -1.1340   10.5630   18.0990 C   0  0  0  0  0  3  0  0  0  0  0  0
   -1.6830   11.7230   18.5830 C   0  0  0  0  0  0  0  0  0  0  0  0
   -3.0020   12.0590   18.2010 C   0  0  0  0  0  3  0  0  0  0  0  0
   -5.0350   11.6020   17.0000 O   0  0  0  0  0  0  0  0  0  0  0  0
   -5.9800   12.2090   17.8200 C   0  0  0  0  0  2  0  0  0  0  0  0
   -6.5220   11.3470   18.8820 C   0  0  0  0  0  0  0  0  0  0  0  0
   -7.8270    8.3890   20.5600 C   0  0  0  0  0  1  0  0  0  0  0  0
   -7.3270    9.7010   20.0960 C   0  0  0  0  0  0  0  0  0  0  0  0
   -6.8870   10.0400   18.8720 N   0  0  0  0  0  0  0  0  0  0  0  0
   -7.2360   10.7720   20.8430 O   0  0  0  0  0  0  0  0  0  0  0  0
   -6.7570   11.7660   20.1360 N   0  0  0  0  0  0  0  0  0  0  0  0
   -0.9330   12.6360   19.4190 C   0  0  0  0  0  0  0  0  0  0  0  0
   -0.6440   13.7530   18.8060 O   0  0  0  0  0  0  0  0  0  0  0  0
   -0.4800   12.5200   20.7340 N   0  0  0  0  0  0  0  0  0  0  0  0
    0.4870   11.6750   21.3370 C   0  0  0  0  0  2  0  0  0  0  0  0
   -1.1390   13.4000   21.7610 C   0  0  2  0  0  3  0  0  0  0  0  0
   -0.2480   10.5620   22.0620 C   0  0  0  0  0  2  0  0  0  0  0  0
   -0.9920   12.7280   23.1080 C   0  0  0  0  0  2  0  0  0  0  0  0
   -1.1550   11.2400   23.0770 C   0  0  0  0  0  2  0  0  0  0  0  0
   -2.5450   13.6450   21.4280 C   0  0  0  0  0  0  0  0  0  0  0  0
   -3.1110   14.7340   20.7880 C   0  0  0  0  0  3  0  0  0  0  0  0
   -3.5720   12.7760   21.7220 C   0  0  0  0  0  3  0  0  0  0  0  0
   -4.4260   14.4940   20.7160 N   0  0  0  0  0  0  0  0  0  0  0  0
   -4.7200   13.3250   21.2710 N   0  0  0  0  0  0  0  0  0  0  0  0
   -5.6780   12.9160   21.3390 H   0  0  0  0  0  0  0  0  0  0  0  0
  1  6  1  0  0  0  0
  2  3  1  0  0  0  0
  2  1  2  0  0  0  0
  3  4  2  0  0  0  0
  4  5  1  0  0  0  0
  5 15  1  0  0  0  0
  6  5  2  0  0  0  0
  7  1  1  0  0  0  0
  7  8  1  0  0  0  0
  8  9  1  0  0  0  0
  9 14  2  0  0  0  0
 11 10  1  0  0  0  0
 11 13  1  0  0  0  0
 12  9  1  0  0  0  0
 12 11  2  0  0  0  0
 14 13  1  0  0  0  0
 15 17  1  0  0  0  0
 16 15  2  0  0  0  0
 17 18  1  0  0  0  0
 17 19  1  0  0  0  0
 18 20  1  0  0  0  0
 19 23  1  6  0  0  0
 19 21  1  0  0  0  0
 20 22  1  0  0  0  0
 22 21  1  0  0  0  0
 23 25  2  0  0  0  0
 24 23  1  0  0  0  0
 26 24  2  0  0  0  0
 26 27  1  0  0  0  0
 27 28  1  0  0  0  0
 27 25  1  0  0  0  0
M  END
>  <MODEL>
1

>  <REMARK>
 VINA RESULT:    -4.940      0.000      0.000
 INTER + INTRA:          -7.628
 INTER:                  -6.673
 INTRA:                  -0.955
 UNBOUND:                -0.955
 SMILES Cc1nc(COc2cccc(C(=O)N3CCCC[C@@H]3c3cn[nH]c3)c2)no1
 SMILES IDX 7 1 8 2 9 3 10 4 11 5 25 6 6 7 5 8 4 9 1 10 2 11 3 12 27 13
 SMILES IDX 26 14 12 15 13 16 14 17 15 18 19 19 16 20 18 21 17 22 20 23
 SMILES IDX 21 24 24 25 22 26 23 27
 H PARENT 23 28
 Flexibility Score: inf

>  <TORSDO>
F 6

$$$$
LB04
 OpenBabel07182316283D

 29 32  0  0  1  0  0  0  0  0999 V2000
    1.1230   11.8660   18.7430 C   0  0  2  0  0  3  0  0  0  0  0  0
    0.8210   11.7560   20.2050 C   0  0  0  0  0  2  0  0  0  0  0  0
    0.0890   10.4700   20.5780 C   0  0  0  0  0  2  0  0  0  0  0  0
    0.8340    9.3540   19.9690 N   0  0  0  0  0  0  0  0  0  0  0  0
    1.4390    8.3690   20.7530 C   0  0  0  0  0  0  0  0  0  0  0  0
    1.3400    8.4300   22.0460 O   0  0  0  0  0  0  0  0  0  0  0  0
    0.8670    9.3910   18.5320 C   0  0  0  0  0  2  0  0  0  0  0  0
    1.7320   10.6040   18.1680 C   0  0  0  0  0  2  0  0  0  0  0  0
    2.0600   13.0210   18.5880 C   0  0  0  0  0  0  0  0  0  0  0  0
    3.2010   14.7790   19.1920 C   0  0  1  0  0  3  0  0  0  0  0  0
    2.3460   13.8460   19.5990 N   0  0  0  0  0  0  0  0  0  0  0  0
    3.4470   14.5220   17.8970 N   0  0  0  0  0  0  0  0  0  0  0  0
    2.7430   13.4400   17.5290 N   0  0  0  0  0  2  0  0  0  0  0  0
    4.0610   15.0260   17.2270 H   0  0  0  0  0  0  0  0  0  0  0  0
    3.8120   15.9100   19.9330 C   0  0  0  0  0  2  0  0  0  0  0  0
    4.0250   15.5610   21.3810 C   0  0  0  0  0  1  0  0  0  0  0  0
    2.1960    7.2440   20.2350 C   0  0  0  0  0  0  0  0  0  0  0  0
    1.9090    5.9060   20.5130 C   0  0  0  0  0  3  0  0  0  0  0  0
    3.2590    7.1940   19.4370 N   0  0  0  0  0  0  0  0  0  0  0  0
    2.8310    5.1490   19.8550 C   0  0  0  0  0  0  0  0  0  0  0  0
    3.6650    5.9660   19.1900 N   0  0  0  0  0  0  0  0  0  0  0  0
    2.9590    3.6470   19.8290 C   0  0  0  0  0  1  0  0  0  0  0  0
    4.7660    5.5380   18.3810 C   0  0  0  0  0  0  0  0  0  0  0  0
    6.0440    5.4140   18.8870 C   0  0  0  0  0  3  0  0  0  0  0  0
    4.5850    5.2280   17.0490 C   0  0  0  0  0  3  0  0  0  0  0  0
    7.1060    4.9980   18.1010 C   0  0  0  0  0  3  0  0  0  0  0  0
    5.6520    4.8090   16.2520 C   0  0  0  0  0  3  0  0  0  0  0  0
    6.9240    4.6900   16.7690 C   0  0  0  0  0  0  0  0  0  0  0  0
    7.9600    4.2780   15.9790 F   0  0  0  0  0  0  0  0  0  0  0  0
  1  9  1  1  0  0  0
  1  2  1  0  0  0  0
  2  3  1  0  0  0  0
  4  3  1  0  0  0  0
  4  5  1  0  0  0  0
  5  6  2  0  0  0  0
  7  4  1  0  0  0  0
  8  7  1  0  0  0  0
  8  1  1  0  0  0  0
  9 11  2  0  0  0  0
 10 11  1  0  0  0  0
 10 15  1  6  0  0  0
 12 10  1  0  0  0  0
 13 12  1  0  0  0  0
 13  9  1  0  0  0  0
 14 12  1  0  0  0  0
 15 16  1  0  0  0  0
 17 18  1  0  0  0  0
 17  5  1  0  0  0  0
 19 17  2  0  0  0  0
 20 18  2  0  0  0  0
 21 19  1  0  0  0  0
 21 20  1  0  0  0  0
 22 20  1  0  0  0  0
 23 24  1  0  0  0  0
 23 21  1  0  0  0  0
 25 23  2  0  0  0  0
 26 24  2  0  0  0  0
 27 28  2  0  0  0  0
 27 25  1  0  0  0  0
 28 26  1  0  0  0  0
 29 28  1  0  0  0  0
M  END
>  <MODEL>
1

>  <REMARK>
 VINA RESULT:    -4.491      0.000      0.000
 INTER + INTRA:          -6.348
 INTER:                  -5.541
 INTRA:                  -0.807
 UNBOUND:                -0.807
 SMILES CCc1nc(C2CCN(C(=O)c3cc(C)n(-c4ccc(F)cc4)n3)CC2)n[nH]1
 SMILES IDX 6 1 7 2 8 3 9 4 10 5 11 6 25 7 26 8 5 9 3 10 4 11 28 12
 SMILES IDX 27 13 2 15 1 16 12 17 13 18 24 19 14 20 16 21 15 22 17 23
 SMILES IDX 18 24 23 25 19 26 22 27 20 28 21 29
 H PARENT 28 14
 Flexibility Score: inf

>  <TORSDO>
F 4

$$$$
LB05
 OpenBabel07182316283D

 27 31  0  0  1  0  0  0  0  0999 V2000
    3.2180    3.3600   19.4270 N   0  0  0  0  0  0  0  0  0  0  0  0
    3.1070    2.6380   20.6560 C   0  0  0  0  0  2  0  0  0  0  0  0
    2.0220    3.3320   21.4990 C   0  0  0  0  0  2  0  0  0  0  0  0
    1.2930    4.1220   20.4810 C   0  0  0  0  0  2  0  0  0  0  0  0
    2.3110    4.5140   19.5110 C   0  0  1  0  0  3  0  0  0  0  0  0
    4.0100    3.1320   18.2870 C   0  0  0  0  0  0  0  0  0  0  0  0
    3.7180    2.0190   17.6730 O   0  0  0  0  0  0  0  0  0  0  0  0
    5.0650    3.9200   17.7130 C   0  0  0  0  0  0  0  0  0  0  0  0
    6.1180    3.8810   13.2300 C   0  0  0  0  0  1  0  0  0  0  0  0
    6.7080    4.6140   14.3810 C   0  0  0  0  0  0  0  0  0  0  0  0
    7.7330    5.4830   14.4120 N   0  0  0  0  0  0  0  0  0  0  0  0
    6.2660    4.5170   15.7070 C   0  0  0  0  0  0  0  0  0  0  0  0
    7.9360    5.9070   15.6420 N   0  0  0  0  0  0  0  0  0  0  0  0
    8.2720    5.7600   13.5630 H   0  0  0  0  0  0  0  0  0  0  0  0
    7.0470    5.3360   16.4960 C   0  0  0  0  0  0  0  0  0  0  0  0
    5.2740    3.8100   16.3270 C   0  0  0  0  0  3  0  0  0  0  0  0
    6.8540    5.4450   17.8130 N   0  0  0  0  0  0  0  0  0  0  0  0
    5.8800    4.7530   18.4280 C   0  0  0  0  0  3  0  0  0  0  0  0
    3.0560    5.7760   19.7110 C   0  0  0  0  0  2  0  0  0  0  0  0
    2.7450    6.8790   18.8820 N   0  0  0  0  0  0  0  0  0  0  0  0
    1.9350    7.9000   19.1960 C   0  0  0  0  0  3  0  0  0  0  0  0
    3.1950    7.1150   17.6730 N   0  0  0  0  0  0  0  0  0  0  0  0
    1.9140    8.7580   18.1330 C   0  0  0  0  0  0  0  0  0  0  0  0
    2.7060    8.2430   17.2040 N   0  0  0  0  0  0  0  0  0  0  0  0
    1.1440   10.0470   18.0220 C   0  0  0  0  0  3  0  0  0  0  0  0
    1.0320   10.9570   19.1630 C   0  0  0  0  0  2  0  0  0  0  0  0
    2.0550   11.2880   18.0840 C   0  0  0  0  0  2  0  0  0  0  0  0
  1  5  1  0  0  0  0
  1  2  1  0  0  0  0
  2  3  1  0  0  0  0
  4  3  1  0  0  0  0
  5 19  1  1  0  0  0
  5  4  1  0  0  0  0
  6  1  1  0  0  0  0
  7  6  2  0  0  0  0
  8  6  1  0  0  0  0
  8 18  1  0  0  0  0
  9 10  1  0  0  0  0
 10 11  1  0  0  0  0
 10 12  2  0  0  0  0
 11 13  1  0  0  0  0
 12 16  1  0  0  0  0
 12 15  1  0  0  0  0
 13 15  2  0  0  0  0
 14 11  1  0  0  0  0
 15 17  1  0  0  0  0
 16  8  2  0  0  0  0
 17 18  2  0  0  0  0
 20 21  1  0  0  0  0
 20 19  1  0  0  0  0
 22 20  1  0  0  0  0
 23 21  2  0  0  0  0
 24 22  2  0  0  0  0
 24 23  1  0  0  0  0
 25 27  1  0  0  0  0
 25 23  1  0  0  0  0
 25 26  1  0  0  0  0
 27 26  1  0  0  0  0
M  END
>  <MODEL>
1

>  <REMARK>
 VINA RESULT:    -6.431      0.000      0.000
 INTER + INTRA:          -8.390
 INTER:                  -8.311
 INTRA:                  -0.079
 UNBOUND:                -0.079
 SMILES Cc1[nH]nc2ncc(C(=O)N3CCC[C@H]3Cn3cc(C4CC4)nn3)cc12
 SMILES IDX 11 1 12 2 13 3 14 4 15 5 9 6 10 7 8 8 1 9 2 10 3 11 26 12
 SMILES IDX 4 13 5 15 25 16 6 17 7 18 16 19 17 20 18 21 24 22 19 23
 SMILES IDX 23 24 20 25 21 26 22 27
 H PARENT 3 14
 Flexibility Score: inf

>  <TORSDO>
F 5

$$$$
LB06
 OpenBabel07182316283D

 26 29  0  0  1  0  0  0  0  0999 V2000
   -0.9720   11.1340   18.7680 C   0  0  0  0  0  0  0  0  0  0  0  0
   -0.9930   10.2840   19.7450 O   0  0  0  0  0  0  0  0  0  0  0  0
    0.0910   12.0500   18.8400 N   0  0  0  0  0  0  0  0  0  0  0  0
    1.5420   13.9320   18.8030 C   0  0  1  0  0  3  0  0  0  0  0  0
    2.2220   12.6770   18.2300 C   0  0  0  0  0  2  0  0  0  0  0  0
    0.0570   13.4730   18.7610 C   0  0  0  0  0  2  0  0  0  0  0  0
    1.4630   11.6440   19.0330 C   0  0  2  0  0  3  0  0  0  0  0  0
    1.9510   14.1950   20.0820 O   0  0  0  0  0  0  0  0  0  0  0  0
    1.0600   15.0490   20.6920 C   0  0  0  0  0  1  0  0  0  0  0  0
    1.7620   10.2940   18.4820 C   0  0  0  0  0  0  0  0  0  0  0  0
    2.0050    9.1890   19.1840 N   0  0  0  0  0  0  0  0  0  0  0  0
    1.8290   10.0120   17.2210 O   0  0  0  0  0  0  0  0  0  0  0  0
    2.2270    8.2010   18.3030 C   0  0  0  0  0  0  0  0  0  0  0  0
    2.1070    8.7570   17.0890 N   0  0  0  0  0  0  0  0  0  0  0  0
    2.5350    6.8030   18.6900 C   0  0  0  0  0  1  0  0  0  0  0  0
   -2.0220   10.9910   17.7970 C   0  0  0  0  0  0  0  0  0  0  0  0
   -1.9500   10.3500   16.5920 C   0  0  0  0  0  3  0  0  0  0  0  0
   -3.2710   11.5540   18.1080 C   0  0  0  0  0  3  0  0  0  0  0  0
   -3.0140   10.2350   15.6940 C   0  0  0  0  0  3  0  0  0  0  0  0
   -4.3290   11.4530   17.2420 C   0  0  0  0  0  0  0  0  0  0  0  0
   -4.2190   10.8000   16.0350 C   0  0  0  0  0  3  0  0  0  0  0  0
   -5.5970   12.0370   17.5820 N   0  0  0  0  0  0  0  0  0  0  0  0
   -6.1080   13.1410   17.0160 C   0  0  0  0  0  3  0  0  0  0  0  0
   -6.4410   11.5610   18.5040 C   0  0  0  0  0  3  0  0  0  0  0  0
   -7.3320   13.3450   17.6320 C   0  0  0  0  0  3  0  0  0  0  0  0
   -7.5150   12.3690   18.5380 N   0  0  0  0  0  0  0  0  0  0  0  0
  1  3  1  0  0  0  0
  1  2  2  0  0  0  0
  3  7  1  0  0  0  0
  4  8  1  1  0  0  0
  5  4  1  0  0  0  0
  5  7  1  0  0  0  0
  6  4  1  0  0  0  0
  6  3  1  0  0  0  0
  7 10  1  6  0  0  0
  8  9  1  0  0  0  0
 10 11  2  0  0  0  0
 12 10  1  0  0  0  0
 13 15  1  0  0  0  0
 13 11  1  0  0  0  0
 14 12  1  0  0  0  0
 14 13  2  0  0  0  0
 16 18  1  0  0  0  0
 16  1  1  0  0  0  0
 17 16  2  0  0  0  0
 19 21  2  0  0  0  0
 19 17  1  0  0  0  0
 20 22  1  0  0  0  0
 20 18  2  0  0  0  0
 21 20  1  0  0  0  0
 22 24  1  0  0  0  0
 23 22  1  0  0  0  0
 23 25  2  0  0  0  0
 24 26  2  0  0  0  0
 25 26  1  0  0  0  0
M  END
>  <MODEL>
1

>  <REMARK>
 VINA RESULT:    -5.026      0.000      0.000
 INTER + INTRA:          -7.552
 INTER:                  -6.495
 INTRA:                  -1.057
 UNBOUND:                -1.057
 SMILES CO[C@H]1C[C@H](c2nc(C)no2)N(C(=O)c2cccc(-n3ccnc3)c2)C1
 SMILES IDX 13 1 14 2 12 3 3 4 4 5 26 6 5 7 2 8 1 9 6 10 7 11 11 12 8 13
 SMILES IDX 10 14 9 15 15 16 16 17 25 18 17 19 19 20 18 21 20 22 21 23
 SMILES IDX 24 24 22 25 23 26
 H PARENT
 Flexibility Score: inf

>  <TORSDO>
F 5

$$$$
LB07
 OpenBabel07182316283D

 26 29  0  0  0  0  0  0  0  0999 V2000
    3.0880    5.2680   17.9290 C   0  0  0  0  0  0  0  0  0  0  0  0
    2.3580    4.0100   18.0080 C   0  0  0  0  0  3  0  0  0  0  0  0
    3.4280    2.9610   17.0490 S   0  0  0  0  0  0  0  0  0  0  0  0
    4.6860    4.2430   16.6550 C   0  0  0  0  0  0  0  0  0  0  0  0
    4.1770    5.2120   17.2490 N   0  0  0  0  0  0  0  0  0  0  0  0
    2.5740    6.5090   18.5890 C   0  0  0  0  0  0  0  0  0  0  0  0
    1.6920   10.1340   18.5300 C   0  0  0  0  0  1  0  0  0  0  0  0
    1.9660    8.6870   18.8290 C   0  0  0  0  0  0  0  0  0  0  0  0
    2.4490    7.7420   17.9530 C   0  0  0  0  0  3  0  0  0  0  0  0
    1.7960    8.0430   19.9940 N   0  0  0  0  0  0  0  0  0  0  0  0
    2.1640    6.7210   19.8490 C   0  0  0  0  0  0  0  0  0  0  0  0
    2.1120    5.7310   20.9620 C   0  0  0  0  0  1  0  0  0  0  0  0
    1.3140    8.6140   21.1940 C   0  0  0  0  0  0  0  0  0  0  0  0
    0.0240    8.8980   21.4910 N   0  0  0  0  0  0  0  0  0  0  0  0
    2.0780    8.9630   22.2360 N   0  0  0  0  0  0  0  0  0  0  0  0
   -0.0150    9.4270   22.7220 C   0  0  0  0  0  3  0  0  0  0  0  0
    1.2550    9.4540   23.1500 N   0  0  0  0  0  0  0  0  0  0  0  0
    3.1240    8.8760   22.3360 H   0  0  0  0  0  0  0  0  0  0  0  0
    5.8750    3.9430   15.8440 C   0  0  0  0  0  2  0  0  0  0  0  0
    6.7560    5.1820   15.7030 C   0  0  0  0  0  2  0  0  0  0  0  0
    7.3480    5.5530   16.9410 N   0  0  0  0  0  0  0  0  0  0  0  0
    7.9020    4.6880   17.9600 C   0  0  0  0  0  2  0  0  0  0  0  0
    7.5080    6.8810   17.4190 C   0  0  0  0  0  0  0  0  0  0  0  0
    7.6060    5.4560   19.2200 C   0  0  0  0  0  2  0  0  0  0  0  0
    7.6990    6.8030   18.7960 O   0  0  0  0  0  0  0  0  0  0  0  0
    7.4930    7.9620   16.7820 O   0  0  0  0  0  0  0  0  0  0  0  0
  1  2  2  0  0  0  0
  1  6  1  0  0  0  0
  3  2  1  0  0  0  0
  4  3  1  0  0  0  0
  4  5  2  0  0  0  0
  5  1  1  0  0  0  0
  6 11  2  0  0  0  0
  7  8  1  0  0  0  0
  8 10  1  0  0  0  0
  9  6  1  0  0  0  0
  9  8  2  0  0  0  0
 10 13  1  0  0  0  0
 11 10  1  0  0  0  0
 11 12  1  0  0  0  0
 13 14  2  0  0  0  0
 13 15  1  0  0  0  0
 14 16  1  0  0  0  0
 15 18  1  0  0  0  0
 15 17  1  0  0  0  0
 16 17  2  0  0  0  0
 19  4  1  0  0  0  0
 20 19  1  0  0  0  0
 20 21  1  0  0  0  0
 21 23  1  0  0  0  0
 21 22  1  0  0  0  0
 22 24  1  0  0  0  0
 23 25  1  0  0  0  0
 25 24  1  0  0  0  0
 26 23  2  0  0  0  0
M  END
>  <MODEL>
1

>  <REMARK>
 VINA RESULT:    -5.421      0.000      0.000
 INTER + INTRA:          -7.710
 INTER:                  -7.005
 INTRA:                  -0.705
 UNBOUND:                -0.705
 SMILES Cc1cc(-c2csc(CCN3CCOC3=O)n2)c(C)n1-c1ncn[nH]1
 SMILES IDX 5 1 6 2 7 3 8 4 17 5 4 6 1 7 2 8 3 9 20 10 18 11 19 12 21 13
 SMILES IDX 22 14 25 15 23 16 24 17 9 19 10 20 11 21 12 22 15 23 13 24
 SMILES IDX 14 25 16 26
 H PARENT 25 18
 Flexibility Score: inf

>  <TORSDO>
F 5

$$$$
LB08
 OpenBabel07182316283D

 26 30  0  0  0  0  0  0  0  0999 V2000
    0.5170   10.5840   17.8590 N   0  0  0  0  0  0  0  0  0  0  0  0
   -0.0190   10.6780   16.9810 H   0  0  0  0  0  0  0  0  0  0  0  0
    0.3200   11.5820   18.8900 C   0  0  0  0  0  2  0  0  0  0  0  0
   -1.0970   11.8790   19.1170 C   0  0  0  0  0  0  0  0  0  0  0  0
   -3.2340   10.3950   14.9530 C   0  0  0  0  0  1  0  0  0  0  0  0
   -3.2370   10.9860   16.3300 C   0  0  0  0  0  0  0  0  0  0  0  0
   -4.4490   11.3850   16.8610 C   0  0  0  0  0  3  0  0  0  0  0  0
   -2.1020   11.1300   17.0380 N   0  0  0  0  0  0  0  0  0  0  0  0
   -4.4820   11.9320   18.1260 C   0  0  0  0  0  3  0  0  0  0  0  0
   -2.1100   11.6510   18.2520 N   0  0  0  0  0  0  0  0  0  0  0  0
   -3.2800   12.0490   18.7940 C   0  0  0  0  0  0  0  0  0  0  0  0
   -2.9880   12.5310   20.0150 N   0  0  0  0  0  0  0  0  0  0  0  0
   -1.6700   12.4270   20.2030 N   0  0  0  0  0  0  0  0  0  0  0  0
    1.3990    9.5000   17.9890 C   0  0  0  0  0  0  0  0  0  0  0  0
    2.2270    8.8740   17.3780 N   0  0  0  0  0  0  0  0  0  0  0  0
    1.4770    8.5400   19.6000 S   0  0  0  0  0  0  0  0  0  0  0  0
    2.9200    7.8780   17.7480 N   0  0  0  0  0  0  0  0  0  0  0  0
    2.7630    7.3900   18.9870 C   0  0  0  0  0  0  0  0  0  0  0  0
    3.8910    7.0610   17.1880 C   0  0  0  0  0  3  0  0  0  0  0  0
    3.5400    6.3530   19.2520 N   0  0  0  0  0  0  0  0  0  0  0  0
    4.2670    6.1220   18.1250 C   0  0  0  0  0  0  0  0  0  0  0  0
    5.2630    5.0260   18.0340 C   0  0  0  0  0  3  0  0  0  0  0  0
    6.5790    5.5510   18.5180 C   0  0  0  0  0  2  0  0  0  0  0  0
    5.5060    4.6400   16.5890 C   0  0  0  0  0  2  0  0  0  0  0  0
    7.5990    4.7190   17.8040 C   0  0  0  0  0  2  0  0  0  0  0  0
    6.9960    4.4170   16.4680 C   0  0  0  0  0  2  0  0  0  0  0  0
  1 14  1  0  0  0  0
  1  3  1  0  0  0  0
  2  1  1  0  0  0  0
  3  4  1  0  0  0  0
  4 13  2  0  0  0  0
  5  6  1  0  0  0  0
  6  7  1  0  0  0  0
  6  8  2  0  0  0  0
  7  9  2  0  0  0  0
  8 10  1  0  0  0  0
  9 11  1  0  0  0  0
 10 11  1  0  0  0  0
 10  4  1  0  0  0  0
 11 12  2  0  0  0  0
 12 13  1  0  0  0  0
 14 16  1  0  0  0  0
 15 17  1  0  0  0  0
 15 14  2  0  0  0  0
 17 18  1  0  0  0  0
 18 20  2  0  0  0  0
 18 16  1  0  0  0  0
 19 17  1  0  0  0  0
 19 21  2  0  0  0  0
 21 20  1  0  0  0  0
 22 21  1  0  0  0  0
 22 23  1  0  0  0  0
 24 22  1  0  0  0  0
 25 23  1  0  0  0  0
 26 24  1  0  0  0  0
 26 25  1  0  0  0  0
M  END
>  <MODEL>
1

>  <REMARK>
 VINA RESULT:    -5.363      0.000      0.000
 INTER + INTRA:          -7.422
 INTER:                  -6.617
 INTRA:                  -0.805
 UNBOUND:                -0.805
 SMILES Cc1ccc2nnc(CNc3nn4cc(C5CCCC5)nc4s3)n2n1
 SMILES IDX 10 1 9 3 8 4 1 5 2 6 3 7 25 8 4 9 24 10 5 11 6 12 7 13 11 14
 SMILES IDX 12 15 23 16 13 17 22 18 14 19 21 20 15 21 16 22 17 23 20 24
 SMILES IDX 18 25 19 26
 H PARENT 10 2
 Flexibility Score: inf

>  <TORSDO>
F 4

$$$$
LB09
 OpenBabel07182316283D

 29 32  0  0  1  0  0  0  0  0999 V2000
    3.0420    4.9250   19.2230 N   0  0  0  0  0  0  0  0  0  0  0  0
    2.4310    4.3180   18.0600 C   0  0  0  0  0  2  0  0  0  0  0  0
    3.3830    3.3100   17.5110 C   0  0  1  0  0  3  0  0  0  0  0  0
    4.7180    3.7750   18.0200 C   0  0  2  0  0  3  0  0  0  0  0  0
    4.4710    4.8790   19.0050 C   0  0  0  0  0  2  0  0  0  0  0  0
    2.3830    5.4530   20.3390 C   0  0  0  0  0  0  0  0  0  0  0  0
    2.1630    4.7160   21.3530 O   0  0  0  0  0  0  0  0  0  0  0  0
    1.9290    6.8270   20.4010 C   0  0  0  0  0  0  0  0  0  0  0  0
    2.7080    7.6420   18.1180 C   0  0  0  0  0  1  0  0  0  0  0  0
    2.0550    7.8110   19.4440 C   0  0  0  0  0  0  0  0  0  0  0  0
    1.5250    8.9180   19.8560 O   0  0  0  0  0  0  0  0  0  0  0  0
    1.0320    8.7280   21.0790 C   0  0  0  0  0  0  0  0  0  0  0  0
    1.2720    7.4510   21.4230 N   0  0  0  0  0  0  0  0  0  0  0  0
    0.3640    9.7770   21.8350 C   0  0  0  0  0  0  0  0  0  0  0  0
   -0.2380    9.6250   23.0640 C   0  0  0  0  0  3  0  0  0  0  0  0
    0.1950   11.0990   21.5020 C   0  0  0  0  0  3  0  0  0  0  0  0
   -0.7560   10.8240   23.4600 N   0  0  0  0  0  0  0  0  0  0  0  0
   -0.4900   11.7160   22.5080 N   0  0  0  0  0  0  0  0  0  0  0  0
   -0.8340   13.1210   22.4710 C   0  0  0  0  0  1  0  0  0  0  0  0
    3.0130    1.9410   18.0810 C   0  0  0  0  0  2  0  0  0  0  0  0
    4.2370    1.1640   18.1360 N   0  0  0  0  0  0  0  0  0  0  0  0
    4.1290    0.3010   17.5930 H   0  0  0  0  0  0  0  0  0  0  0  0
    4.5950    1.0140   19.0880 H   0  0  0  0  0  0  0  0  0  0  0  0
    5.5460    4.2010   16.8750 C   0  0  0  0  0  0  0  0  0  0  0  0
    5.2190    3.8730   15.5630 C   0  0  0  0  0  3  0  0  0  0  0  0
    6.6870    4.9480   17.0590 C   0  0  0  0  0  3  0  0  0  0  0  0
    5.9760    4.2590   14.4820 C   0  0  0  0  0  3  0  0  0  0  0  0
    7.4600    5.3460   15.9980 C   0  0  0  0  0  3  0  0  0  0  0  0
    7.1190    5.0090   14.6840 C   0  0  0  0  0  3  0  0  0  0  0  0
  1  6  1  0  0  0  0
  2  1  1  0  0  0  0
  3  4  1  0  0  0  0
  3  2  1  0  0  0  0
  3 20  1  1  0  0  0
  4 24  1  6  0  0  0
  4  5  1  0  0  0  0
  5  1  1  0  0  0  0
  6  8  1  0  0  0  0
  6  7  2  0  0  0  0
  8 13  1  0  0  0  0
  9 10  1  0  0  0  0
 10 11  1  0  0  0  0
 10  8  2  0  0  0  0
 11 12  1  0  0  0  0
 12 13  2  0  0  0  0
 12 14  1  0  0  0  0
 14 15  1  0  0  0  0
 15 17  2  0  0  0  0
 16 14  2  0  0  0  0
 16 18  1  0  0  0  0
 18 17  1  0  0  0  0
 19 18  1  0  0  0  0
 20 21  1  0  0  0  0
 21 23  1  0  0  0  0
 22 21  1  0  0  0  0
 24 26  1  0  0  0  0
 25 24  2  0  0  0  0
 27 29  2  0  0  0  0
 27 25  1  0  0  0  0
 28 26  2  0  0  0  0
 29 28  1  0  0  0  0
M  END
>  <MODEL>
1

>  <REMARK>
 VINA RESULT:    -6.113      0.000      0.000
 INTER + INTRA:          -8.178
 INTER:                  -8.079
 INTRA:                  -0.099
 UNBOUND:                -0.099
 SMILES Cc1oc(-c2cnn(C)c2)nc1C(=O)N1C[C@H](CN)[C@@H](c2ccccc2)C1
 SMILES IDX 15 1 16 2 17 3 20 4 27 5 13 6 14 7 12 8 1 9 2 10 3 11 4 12
 SMILES IDX 11 13 5 14 6 15 10 16 7 17 8 18 9 19 18 20 19 21 21 24 22 25
 SMILES IDX 26 26 23 27 25 28 24 29
 H PARENT 19 22 19 23
 Flexibility Score: inf

>  <TORSDO>
F 6

$$$$
LB10
 OpenBabel07182316283D

 28 31  0  0  0  0  0  0  0  0999 V2000
    5.1430    5.8530   16.1510 C   0  0  0  0  0  2  0  0  0  0  0  0
    4.0790    5.1860   17.4110 S   0  0  0  0  0  0  0  0  0  0  0  0
    3.1470    6.4040   18.3220 C   0  0  0  0  0  0  0  0  0  0  0  0
    2.6320    6.2370   19.5410 N   0  0  0  0  0  0  0  0  0  0  0  0
    1.9530    7.2040   20.1700 C   0  0  0  0  0  0  0  0  0  0  0  0
    2.9620    7.6180   17.7070 N   0  0  0  0  0  0  0  0  0  0  0  0
    1.7260    8.4800   19.5940 C   0  0  0  0  0  0  0  0  0  0  0  0
    1.5150    6.9320   21.3120 O   0  0  0  0  0  0  0  0  0  0  0  0
    2.2830    8.5900   18.3350 C   0  0  0  0  0  0  0  0  0  0  0  0
    1.0720    9.5710   20.0750 C   0  0  0  0  0  0  0  0  0  0  0  0
    1.8780   10.2410   17.8300 S   0  0  0  0  0  0  0  0  0  0  0  0
    0.9890   10.6750   19.3410 C   0  0  0  0  0  0  0  0  0  0  0  0
    0.3360    9.9160   21.3650 C   0  0  0  0  0  2  0  0  0  0  0  0
    0.2390   11.7770   19.9970 C   0  0  0  0  0  2  0  0  0  0  0  0
   -0.6460   10.9510   20.9420 C   0  0  0  0  0  2  0  0  0  0  0  0
    2.8340    4.9410   20.1610 C   0  0  0  0  0  2  0  0  0  0  0  0
    1.6590    4.0610   20.2650 C   0  0  0  0  0  2  0  0  0  0  0  0
    1.9400    3.0960   21.4320 C   0  0  0  0  0  1  0  0  0  0  0  0
    6.5830    5.7740   16.5110 C   0  0  0  0  0  0  0  0  0  0  0  0
    7.2010    4.7380   16.1260 O   0  0  0  0  0  0  0  0  0  0  0  0
    7.2640    6.8140   17.2620 C   0  0  0  0  0  0  0  0  0  0  0  0
    7.4810    8.1050   16.9760 N   0  0  0  0  0  0  0  0  0  0  0  0
    7.8480    6.6200   18.4990 C   0  0  0  0  0  0  0  0  0  0  0  0
    8.1500    8.6780   17.9560 N   0  0  0  0  0  0  0  0  0  0  0  0
    8.3840    7.7740   18.9020 N   0  0  0  0  0  0  0  0  0  0  0  0
    7.8880    5.3600   19.2690 C   0  0  0  0  0  1  0  0  0  0  0  0
    8.5830   10.0590   18.0380 C   0  0  0  0  0  2  0  0  0  0  0  0
    9.3260   10.3230   19.3270 C   0  0  0  0  0  1  0  0  0  0  0  0
  1 19  1  0  0  0  0
  1  2  1  0  0  0  0
  2  3  1  0  0  0  0
  3  4  1  0  0  0  0
  4 16  1  0  0  0  0
  4  5  1  0  0  0  0
  5  8  2  0  0  0  0
  6  3  2  0  0  0  0
  6  9  1  0  0  0  0
  7 10  1  0  0  0  0
  7  5  1  0  0  0  0
  9  7  2  0  0  0  0
 10 13  1  0  0  0  0
 11  9  1  0  0  0  0
 11 12  1  0  0  0  0
 12 14  1  0  0  0  0
 12 10  2  0  0  0  0
 14 15  1  0  0  0  0
 15 13  1  0  0  0  0
 16 17  1  0  0  0  0
 17 18  1  0  0  0  0
 19 21  1  0  0  0  0
 20 19  2  0  0  0  0
 21 23  1  0  0  0  0
 22 21  2  0  0  0  0
 22 24  1  0  0  0  0
 23 25  2  0  0  0  0
 23 26  1  0  0  0  0
 24 27  1  0  0  0  0
 24 25  1  0  0  0  0
 27 28  1  0  0  0  0
M  END
>  <MODEL>
1

>  <REMARK>
 VINA RESULT:    -5.221      0.000      0.000
 INTER + INTRA:          -7.871
 INTER:                  -7.358
 INTRA:                  -0.513
 UNBOUND:                -0.513
 SMILES CCCn1c(SCC(=O)c2nn(CC)nc2C)nc2sc3c(c2c1=O)CCC3
 SMILES IDX 7 1 6 2 5 3 4 4 24 5 18 6 23 7 25 8 19 9 22 10 20 11 21 12
 SMILES IDX 26 13 28 14 27 15 3 16 2 17 1 18 8 19 9 20 10 21 11 22 16 23
 SMILES IDX 12 24 15 25 17 26 13 27 14 28
 H PARENT
 Flexibility Score: inf

>  <TORSDO>
F 7

$$$$
KH01
 OpenBabel07182316283D

 34 38  0  0  1  0  0  0  0  0999 V2000
    4.3250    5.8940   17.1410 C   0  0  0  0  0  0  0  0  0  0  0  0
    3.8500    4.6610   17.5290 C   0  0  0  0  0  3  0  0  0  0  0  0
    2.7650    4.5340   18.4010 C   0  0  0  0  0  0  0  0  0  0  0  0
    2.1990    5.6670   18.8480 N   0  0  0  0  0  0  0  0  0  0  0  0
    2.6320    6.9000   18.4920 C   0  0  0  0  0  0  0  0  0  0  0  0
    3.7020    7.0210   17.6320 C   0  0  0  0  0  0  0  0  0  0  0  0
    4.1100    8.2780   17.2960 F   0  0  0  0  0  0  0  0  0  0  0  0
    5.4910    6.0550   16.2240 C   0  0  2  0  0  3  0  0  0  0  0  0
    5.2320    5.2100   14.9940 C   0  0  0  0  0  1  0  0  0  0  0  0
    6.7560    5.6380   16.9410 C   0  0  0  0  0  2  0  0  0  0  0  0
    7.4330    6.8320   17.5240 C   0  0  0  0  0  0  0  0  0  0  0  0
    7.5820    8.0650   17.0110 N   0  0  0  0  0  0  0  0  0  0  0  0
    8.0450    6.8470   18.7460 N   0  0  0  0  0  0  0  0  0  0  0  0
    8.2510    8.8000   17.8750 N   0  0  0  0  0  0  0  0  0  0  0  0
    8.5530    8.0670   18.9660 C   0  0  0  0  0  3  0  0  0  0  0  0
    8.1020    5.6890   19.6260 C   0  0  0  0  0  1  0  0  0  0  0  0
    2.2990    3.2480   18.7860 N   0  0  0  0  0  0  0  0  0  0  0  0
    2.4290    1.8720   18.3580 C   0  0  0  0  0  2  0  0  0  0  0  0
    1.4350    2.7730   19.8530 C   0  0  0  0  0  2  0  0  0  0  0  0
    1.0200    1.6480   18.9260 C   0  0  0  0  0  2  0  0  0  0  0  0
    1.9970    8.0820   18.9880 N   0  0  0  0  0  0  0  0  0  0  0  0
    1.5440    8.2460   20.3450 C   0  0  0  0  0  2  0  0  0  0  0  0
    1.6980    9.2730   18.2740 C   0  0  0  0  0  0  0  0  0  0  0  0
    0.9710    9.6130   20.3890 C   0  0  0  0  0  0  0  0  0  0  0  0
    1.0620   10.2140   19.1600 C   0  0  0  0  0  0  0  0  0  0  0  0
    1.9560    9.4550   17.0610 O   0  0  0  0  0  0  0  0  0  0  0  0
    0.3830   10.3550   21.4150 C   0  0  0  0  0  0  0  0  0  0  0  0
    0.5860   11.5030   18.9520 C   0  0  0  0  0  3  0  0  0  0  0  0
   -0.0910   11.6350   21.2130 C   0  0  0  0  0  3  0  0  0  0  0  0
    0.0110   12.2200   19.9640 C   0  0  0  0  0  3  0  0  0  0  0  0
    0.2760    9.7220   22.7520 C   0  0  0  0  0  0  0  0  0  0  0  0
    1.4980    9.3210   23.2500 F   0  0  0  0  0  0  0  0  0  0  0  0
   -0.5410    8.5860   22.6940 F   0  0  0  0  0  0  0  0  0  0  0  0
   -0.2970   10.5890   23.6480 F   0  0  0  0  0  0  0  0  0  0  0  0
  1  2  2  0  0  0  0
  1  6  1  0  0  0  0
  2  3  1  0  0  0  0
  3 17  1  0  0  0  0
  3  4  2  0  0  0  0
  5  4  1  0  0  0  0
  5 21  1  0  0  0  0
  6  5  2  0  0  0  0
  7  6  1  0  0  0  0
  8  9  1  6  0  0  0
  8 10  1  0  0  0  0
  8  1  1  0  0  0  0
 10 11  1  0  0  0  0
 11 13  1  0  0  0  0
 12 11  2  0  0  0  0
 12 14  1  0  0  0  0
 13 15  1  0  0  0  0
 13 16  1  0  0  0  0
 14 15  2  0  0  0  0
 17 19  1  0  0  0  0
 18 17  1  0  0  0  0
 18 20  1  0  0  0  0
 20 19  1  0  0  0  0
 21 22  1  0  0  0  0
 22 24  1  0  0  0  0
 23 21  1  0  0  0  0
 23 25  1  0  0  0  0
 24 27  1  0  0  0  0
 25 24  2  0  0  0  0
 26 23  2  0  0  0  0
 27 31  1  0  0  0  0
 28 25  1  0  0  0  0
 28 30  2  0  0  0  0
 29 27  2  0  0  0  0
 30 29  1  0  0  0  0
 31 32  1  0  0  0  0
 31 34  1  0  0  0  0
 33 31  1  0  0  0  0
M  END
>  <MODEL>
1

>  <REMARK>
 VINA RESULT:    -5.374      0.000      0.000
 INTER + INTRA:          -7.844
 INTER:                  -7.259
 INTRA:                  -0.585
 UNBOUND:                -0.585
 SMILES C[C@H](Cc1nncn1C)c1cc(N2CCC2)nc(N2Cc3c(cccc3C(F)(F)F)C2=O)c1F
 SMILES IDX 10 1 11 2 12 3 17 4 18 5 33 6 34 7 2 8 1 9 3 10 4 11 5 12
 SMILES IDX 8 13 6 14 7 15 9 16 13 17 14 18 16 19 15 20 19 21 20 22
 SMILES IDX 31 23 21 24 22 25 32 26 26 27 23 28 25 29 24 30 27 31 28 32
 SMILES IDX 29 33 30 34
 H PARENT
 Flexibility Score: inf

>  <TORSDO>
F 6

$$$$
KH02
 OpenBabel07182316283D

 33 35  0  0  1  0  0  0  0  0999 V2000
    4.6590    5.2120   16.8800 C   0  0  0  0  0  0  0  0  0  0  0  0
    4.1800    6.3620   17.5350 C   0  0  0  0  0  3  0  0  0  0  0  0
    3.1060    6.3480   18.3340 C   0  0  0  0  0  0  0  0  0  0  0  0
    2.4710    5.1120   18.5040 C   0  0  0  0  0  3  0  0  0  0  0  0
    2.8630    3.9570   17.9200 C   0  0  0  0  0  0  0  0  0  0  0  0
    3.9750    4.0160   17.0970 C   0  0  0  0  0  3  0  0  0  0  0  0
    5.8270    5.2520   15.9680 C   0  0  2  0  0  3  0  0  0  0  0  0
    5.6560    4.4270   14.7440 C   0  0  0  0  0  1  0  0  0  0  0  0
    7.1390    5.0280   16.6810 C   0  0  0  0  0  2  0  0  0  0  0  0
    7.5710    6.2940   17.2930 C   0  0  0  0  0  0  0  0  0  0  0  0
    7.6450    7.4880   16.7240 N   0  0  0  0  0  0  0  0  0  0  0  0
    7.9430    6.4640   18.5790 N   0  0  0  0  0  0  0  0  0  0  0  0
    8.0490    8.3940   17.6070 N   0  0  0  0  0  0  0  0  0  0  0  0
    8.2390    7.7500   18.7960 C   0  0  0  0  0  3  0  0  0  0  0  0
    8.0010    5.4100   19.5610 C   0  0  0  0  0  1  0  0  0  0  0  0
    2.5860    7.4820   19.0400 N   0  0  0  0  0  0  0  0  0  0  0  0
    2.1120    8.5860   18.3050 C   0  0  0  0  0  0  0  0  0  0  0  0
    2.5630    7.5210   20.0690 H   0  0  0  0  0  0  0  0  0  0  0  0
    2.2740    8.4960   17.0200 O   0  0  0  0  0  0  0  0  0  0  0  0
    1.4590    9.7900   18.7990 C   0  0  0  0  0  0  0  0  0  0  0  0
    0.8180    9.5320   20.0400 C   0  0  0  0  0  3  0  0  0  0  0  0
    1.3050   10.9460   18.2010 N   0  0  0  0  0  0  0  0  0  0  0  0
    0.0260   10.4510   20.6470 C   0  0  0  0  0  3  0  0  0  0  0  0
    0.5070   11.9040   18.7820 C   0  0  0  0  0  3  0  0  0  0  0  0
   -0.1300   11.6900   19.9730 C   0  0  0  0  0  0  0  0  0  0  0  0
   -0.9970   12.6330   20.6840 C   0  0  0  0  0  0  0  0  0  0  0  0
   -2.3570   12.6040   20.0210 C   0  0  0  0  0  1  0  0  0  0  0  0
   -1.1150   12.2790   22.1380 C   0  0  0  0  0  1  0  0  0  0  0  0
   -0.4110   14.0460   20.5690 C   0  0  0  0  0  1  0  0  0  0  0  0
    2.1020    2.7360   18.1820 C   0  0  0  0  0  0  0  0  0  0  0  0
    0.7600    2.9200   18.2700 F   0  0  0  0  0  0  0  0  0  0  0  0
    2.3910    1.7860   17.1760 F   0  0  0  0  0  0  0  0  0  0  0  0
    2.6050    2.1550   19.3400 F   0  0  0  0  0  0  0  0  0  0  0  0
  1  6  2  0  0  0  0
  1  2  1  0  0  0  0
  2  3  2  0  0  0  0
  3  4  1  0  0  0  0
  3 16  1  0  0  0  0
  5 30  1  0  0  0  0
  5  4  2  0  0  0  0
  6  5  1  0  0  0  0
  7  8  1  6  0  0  0
  7  9  1  0  0  0  0
  7  1  1  0  0  0  0
  9 10  1  0  0  0  0
 10 12  1  0  0  0  0
 11 10  2  0  0  0  0
 11 13  1  0  0  0  0
 12 14  1  0  0  0  0
 12 15  1  0  0  0  0
 13 14  2  0  0  0  0
 16 18  1  0  0  0  0
 17 20  1  0  0  0  0
 17 16  1  0  0  0  0
 19 17  2  0  0  0  0
 20 21  1  0  0  0  0
 21 23  2  0  0  0  0
 22 24  1  0  0  0  0
 22 20  2  0  0  0  0
 24 25  2  0  0  0  0
 25 23  1  0  0  0  0
 25 26  1  0  0  0  0
 26 28  1  0  0  0  0
 27 26  1  0  0  0  0
 29 26  1  0  0  0  0
 30 31  1  0  0  0  0
 30 33  1  0  0  0  0
 32 30  1  0  0  0  0
M  END
>  <MODEL>
1

>  <REMARK>
 VINA RESULT:    -6.288      0.000      0.000
 INTER + INTRA:          -9.957
 INTER:                  -8.861
 INTRA:                  -1.096
 UNBOUND:                -1.096
 SMILES C[C@H](Cc1nncn1C)c1cc(NC(=O)c2ccc(C(C)(C)C)cn2)cc(C(F)(F)F)c1
 SMILES IDX 10 1 11 2 12 3 26 4 27 5 32 6 2 7 1 8 3 9 4 10 5 11 8 12
 SMILES IDX 6 13 7 14 9 15 13 16 14 17 15 19 16 20 17 21 25 22 18 23
 SMILES IDX 24 24 19 25 20 26 21 27 22 28 23 29 28 30 29 31 30 32 31 33
 H PARENT 13 18
 Flexibility Score: inf

>  <TORSDO>
F 7

$$$$
KH03
 OpenBabel07182316283D

 47 52  0  0  1  0  0  0  0  0999 V2000
    1.5910   13.3760   18.4340 C   0  0  0  0  0  0  0  0  0  0  0  0
    2.2660   12.1760   18.1960 C   0  0  0  0  0  3  0  0  0  0  0  0
    1.6280   10.9580   18.1100 C   0  0  0  0  0  0  0  0  0  0  0  0
    0.2680   10.9520   18.2690 N   0  0  0  0  0  0  0  0  0  0  0  0
   -0.4400   12.0530   18.4970 C   0  0  0  0  0  0  0  0  0  0  0  0
    0.2290   13.2700   18.5800 C   0  0  0  0  0  0  0  0  0  0  0  0
   -0.5040   14.3730   18.8060 F   0  0  0  0  0  0  0  0  0  0  0  0
    2.3550   14.6140   18.5200 C   0  0  2  0  0  3  0  0  0  0  0  0
    3.7730   14.3890   18.1230 C   0  0  0  0  0  1  0  0  0  0  0  0
    2.2270   15.3050   19.8600 C   0  0  0  0  0  2  0  0  0  0  0  0
    3.0490   14.6720   20.9240 C   0  0  0  0  0  0  0  0  0  0  0  0
    2.6080   13.7020   21.7400 N   0  0  0  0  0  0  0  0  0  0  0  0
    4.3140   14.9290   21.2800 N   0  0  0  0  0  0  0  0  0  0  0  0
    3.5620   13.3860   22.5530 N   0  0  0  0  0  0  0  0  0  0  0  0
    4.6440   14.1260   22.3020 C   0  0  0  0  0  3  0  0  0  0  0  0
    5.2180   15.9060   20.7050 C   0  0  0  0  0  1  0  0  0  0  0  0
    2.2260    9.7150   17.8380 N   0  0  0  0  0  0  0  0  0  0  0  0
    2.1660    8.6360   18.7240 C   0  0  0  0  0  0  0  0  0  0  0  0
    2.7400    9.5320   16.9240 H   0  0  0  0  0  0  0  0  0  0  0  0
    1.6060    8.6750   19.8430 O   0  0  0  0  0  0  0  0  0  0  0  0
    2.7890    7.3330   18.3790 C   0  0  0  0  0  0  0  0  0  0  0  0
    2.4340    6.1690   19.0150 C   0  0  0  0  0  3  0  0  0  0  0  0
    3.7270    7.2570   17.4070 N   0  0  0  0  0  0  0  0  0  0  0  0
    2.9850    4.9400   18.7090 C   0  0  0  0  0  0  0  0  0  0  0  0
    4.2860    6.0650   17.0830 C   0  0  0  0  0  0  0  0  0  0  0  0
    3.9420    4.8840   17.7110 C   0  0  0  0  0  3  0  0  0  0  0  0
    2.5680    3.7330   19.4600 C   0  0  0  0  0  3  0  0  0  0  0  0
    1.2830    3.6910   20.2240 C   0  0  0  0  0  2  0  0  0  0  0  0
    1.4360    2.9170   18.9340 C   0  0  0  0  0  2  0  0  0  0  0  0
    5.3230    6.0160   15.9960 C   0  0  0  0  0  0  0  0  0  0  0  0
    6.5350    6.3110   16.5840 F   0  0  0  0  0  0  0  0  0  0  0  0
    4.9890    7.0130   15.0690 F   0  0  0  0  0  0  0  0  0  0  0  0
    5.3200    4.7920   15.3950 F   0  0  0  0  0  0  0  0  0  0  0  0
   -1.8720   12.0700   18.6760 N   0  0  0  0  0  0  0  0  0  0  0  0
   -2.5960   12.5030   19.8530 C   0  0  0  0  0  2  0  0  0  0  0  0
   -2.8570   11.6850   17.7260 C   0  0  0  0  0  0  0  0  0  0  0  0
   -4.0250   12.4330   19.4950 C   0  0  0  0  0  0  0  0  0  0  0  0
   -4.2120   11.9100   18.2300 C   0  0  0  0  0  0  0  0  0  0  0  0
   -2.6320   11.2020   16.5830 O   0  0  0  0  0  0  0  0  0  0  0  0
   -5.1330   12.7960   20.2500 C   0  0  0  0  0  0  0  0  0  0  0  0
   -5.4840   11.7540   17.7370 C   0  0  0  0  0  3  0  0  0  0  0  0
   -6.3940   12.6280   19.7300 C   0  0  0  0  0  3  0  0  0  0  0  0
   -6.5960   12.1050   18.4690 C   0  0  0  0  0  3  0  0  0  0  0  0
   -4.9320   13.3670   21.6290 C   0  0  0  0  0  0  0  0  0  0  0  0
   -4.2790   12.4550   22.4310 F   0  0  0  0  0  0  0  0  0  0  0  0
   -6.2080   13.5390   22.1590 F   0  0  0  0  0  0  0  0  0  0  0  0
   -4.2750   14.5770   21.5300 F   0  0  0  0  0  0  0  0  0  0  0  0
  1  8  1  0  0  0  0
  1  6  1  0  0  0  0
  2  1  2  0  0  0  0
  3  2  1  0  0  0  0
  3  4  2  0  0  0  0
  4  5  1  0  0  0  0
  5  6  2  0  0  0  0
  5 34  1  0  0  0  0
  6  7  1  0  0  0  0
  8  9  1  1  0  0  0
  8 10  1  0  0  0  0
 10 11  1  0  0  0  0
 11 13  1  0  0  0  0
 11 12  2  0  0  0  0
 12 14  1  0  0  0  0
 13 15  1  0  0  0  0
 15 14  2  0  0  0  0
 16 13  1  0  0  0  0
 17  3  1  0  0  0  0
 17 18  1  0  0  0  0
 18 20  2  0  0  0  0
 19 17  1  0  0  0  0
 21 18  1  0  0  0  0
 21 22  1  0  0  0  0
 23 21  2  0  0  0  0
 24 22  2  0  0  0  0
 24 27  1  0  0  0  0
 25 23  1  0  0  0  0
 25 26  2  0  0  0  0
 26 24  1  0  0  0  0
 27 28  1  0  0  0  0
 29 27  1  0  0  0  0
 29 28  1  0  0  0  0
 30 31  1  0  0  0  0
 30 25  1  0  0  0  0
 32 30  1  0  0  0  0
 33 30  1  0  0  0  0
 34 35  1  0  0  0  0
 36 38  1  0  0  0  0
 36 34  1  0  0  0  0
 37 35  1  0  0  0  0
 37 40  1  0  0  0  0
 38 37  2  0  0  0  0
 39 36  2  0  0  0  0
 40 44  1  0  0  0  0
 41 38  1  0  0  0  0
 41 43  2  0  0  0  0
 42 40  2  0  0  0  0
 43 42  1  0  0  0  0
 44 46  1  0  0  0  0
 44 45  1  0  0  0  0
 47 44  1  0  0  0  0
M  END
>  <MODEL>
1

>  <REMARK>
 VINA RESULT:    -6.634      0.000      0.000
 INTER + INTRA:         -11.280
 INTER:                 -10.124
 INTRA:                  -1.156
 UNBOUND:                -1.156
 SMILES C[C@H](Cc1nncn1C)c1cc(NC(=O)c2cc(C3CC3)cc(C(F)(F)F)n2)nc(N2Cc3c(cccc3C(F)(F)F)C2=O)c1F
 SMILES IDX 10 1 11 2 12 3 29 4 30 5 45 6 46 7 2 8 1 9 3 10 4 11 5 12
 SMILES IDX 8 13 6 14 7 15 9 16 13 17 14 18 15 20 16 21 17 22 28 23
 SMILES IDX 18 24 23 25 22 26 19 27 20 28 21 29 24 30 25 31 26 32 27 33
 SMILES IDX 31 34 32 35 43 36 33 37 34 38 44 39 38 40 35 41 37 42 36 43
 SMILES IDX 39 44 40 45 41 46 42 47
 H PARENT 13 19
 Flexibility Score: inf

>  <TORSDO>
F 9

$$$$
KH04
 OpenBabel07182316283D

 32 35  0  0  1  0  0  0  0  0999 V2000
    0.4940   10.4910   19.6960 C   0  0  0  0  0  0  0  0  0  0  0  0
    0.3220   10.4900   21.0460 C   0  0  0  0  0  3  0  0  0  0  0  0
    0.8070    9.4260   21.8440 C   0  0  0  0  0  0  0  0  0  0  0  0
    1.4620    8.3650   21.2960 C   0  0  0  0  0  3  0  0  0  0  0  0
    1.6440    8.3410   19.9330 C   0  0  0  0  0  0  0  0  0  0  0  0
    1.1670    9.3780   19.1770 C   0  0  0  0  0  0  0  0  0  0  0  0
    1.3760    9.2810   17.4150 Cl  0  0  0  0  0  0  0  0  0  0  0  0
    0.0090   11.4750   18.7370 C   0  0  2  0  0  3  0  0  0  0  0  0
    0.3250   12.9310   19.0810 C   0  0  0  0  0  1  0  0  0  0  0  0
   -1.8640   11.5130   18.9050 S   0  0  0  0  0  0  0  0  0  0  0  0
   -2.4950   10.9640   17.2960 C   0  0  0  0  0  0  0  0  0  0  0  0
   -1.8690   10.1760   16.3750 N   0  0  0  0  0  0  0  0  0  0  0  0
   -3.7020   11.2330   16.7640 N   0  0  0  0  0  0  0  0  0  0  0  0
   -2.6430    9.9800   15.3480 N   0  0  0  0  0  0  0  0  0  0  0  0
   -3.8160   10.6380   15.5600 C   0  0  0  0  0  3  0  0  0  0  0  0
   -4.7170   12.0070   17.4110 C   0  0  0  0  0  1  0  0  0  0  0  0
    0.5740    9.5760   23.2510 C   0  0  0  0  0  0  0  0  0  0  0  0
    0.4030    9.7000   24.4000 N   0  0  0  0  0  0  0  0  0  0  0  0
    2.4130    7.2930   19.2870 N   0  0  0  0  0  0  0  0  0  0  0  0
    3.3130    7.3350   18.1700 C   0  0  0  0  0  2  0  0  0  0  0  0
    2.3920    5.9210   19.7370 C   0  0  0  0  0  0  0  0  0  0  0  0
    3.9360    5.9820   18.1020 C   0  0  0  0  0  0  0  0  0  0  0  0
    3.3480    5.1130   18.9960 C   0  0  0  0  0  0  0  0  0  0  0  0
    1.6510    5.4750   20.6480 O   0  0  0  0  0  0  0  0  0  0  0  0
    4.9340    5.5410   17.2560 C   0  0  0  0  0  0  0  0  0  0  0  0
    3.7420    3.7920   19.0650 C   0  0  0  0  0  3  0  0  0  0  0  0
    5.3140    4.1990   17.3490 C   0  0  0  0  0  3  0  0  0  0  0  0
    4.7380    3.3160   18.2340 C   0  0  0  0  0  3  0  0  0  0  0  0
    5.6130    6.4400   16.2780 C   0  0  0  0  0  0  0  0  0  0  0  0
    4.7230    6.9570   15.3730 F   0  0  0  0  0  0  0  0  0  0  0  0
    6.5190    5.6480   15.5500 F   0  0  0  0  0  0  0  0  0  0  0  0
    6.3970    7.3930   16.9000 F   0  0  0  0  0  0  0  0  0  0  0  0
  1  2  1  0  0  0  0
  2  3  2  0  0  0  0
  3 17  1  0  0  0  0
  4  3  1  0  0  0  0
  5  4  2  0  0  0  0
  6  1  2  0  0  0  0
  6  5  1  0  0  0  0
  7  6  1  0  0  0  0
  8 10  1  0  0  0  0
  8  9  1  1  0  0  0
  8  1  1  0  0  0  0
 11 10  1  0  0  0  0
 12 11  2  0  0  0  0
 13 11  1  0  0  0  0
 13 16  1  0  0  0  0
 14 15  2  0  0  0  0
 14 12  1  0  0  0  0
 15 13  1  0  0  0  0
 17 18  3  0  0  0  0
 19 21  1  0  0  0  0
 19  5  1  0  0  0  0
 20 19  1  0  0  0  0
 21 24  2  0  0  0  0
 22 20  1  0  0  0  0
 22 23  1  0  0  0  0
 23 26  2  0  0  0  0
 23 21  1  0  0  0  0
 25 27  1  0  0  0  0
 25 22  2  0  0  0  0
 27 28  2  0  0  0  0
 28 26  1  0  0  0  0
 29 32  1  0  0  0  0
 29 25  1  0  0  0  0
 30 29  1  0  0  0  0
 31 29  1  0  0  0  0
M  END
>  <MODEL>
1

>  <REMARK>
 VINA RESULT:    -5.945      0.000      0.000
 INTER + INTRA:          -8.350
 INTER:                  -8.031
 INTRA:                  -0.319
 UNBOUND:                -0.319
 SMILES C[C@H](Sc1nncn1C)c1cc(C#N)cc(N2Cc3c(cccc3C(F)(F)F)C2=O)c1Cl
 SMILES IDX 10 1 11 2 12 3 15 4 16 5 31 6 32 7 2 8 1 9 3 10 4 11 5 12
 SMILES IDX 8 13 6 14 7 15 9 16 13 17 14 18 17 19 18 20 29 21 19 22
 SMILES IDX 20 23 30 24 24 25 21 26 23 27 22 28 25 29 26 30 27 31 28 32
 H PARENT
 Flexibility Score: inf

>  <TORSDO>
F 6

$$$$
KH05
 OpenBabel07182316283D

 34 37  0  0  1  0  0  0  0  0999 V2000
    2.4610    6.8760   18.6550 N   0  0  0  0  0  0  0  0  0  0  0  0
    2.1120    8.1580   18.1930 C   0  0  0  0  0  0  0  0  0  0  0  0
    2.5320    8.4800   17.0530 O   0  0  0  0  0  0  0  0  0  0  0  0
    2.0780    6.6570   19.6270 H   0  0  0  0  0  0  0  0  0  0  0  0
    3.2230    5.8830   18.0200 C   0  0  0  0  0  0  0  0  0  0  0  0
    4.9400    5.0090   16.5170 C   0  0  0  0  0  0  0  0  0  0  0  0
    4.6350    3.7340   16.8620 C   0  0  0  0  0  3  0  0  0  0  0  0
    4.2160    6.0550   17.1140 C   0  0  0  0  0  3  0  0  0  0  0  0
    3.6370    3.4990   17.7760 C   0  0  0  0  0  3  0  0  0  0  0  0
    2.9470    4.5450   18.3420 C   0  0  0  0  0  3  0  0  0  0  0  0
    6.0100    5.3320   15.5350 C   0  0  2  0  0  3  0  0  0  0  0  0
    5.6950    4.6980   14.2130 C   0  0  0  0  0  1  0  0  0  0  0  0
    7.3350    4.9210   16.0870 C   0  0  0  0  0  2  0  0  0  0  0  0
    7.5800    5.2700   17.4880 C   0  0  0  0  0  0  0  0  0  0  0  0
    7.7500    4.3580   18.4700 N   0  0  0  0  0  0  0  0  0  0  0  0
    7.7110    6.4690   18.0710 N   0  0  0  0  0  0  0  0  0  0  0  0
    7.9720    4.9760   19.5950 N   0  0  0  0  0  0  0  0  0  0  0  0
    7.9560    6.2870   19.3890 C   0  0  0  0  0  3  0  0  0  0  0  0
    7.6240    7.7410   17.4010 C   0  0  0  0  0  1  0  0  0  0  0  0
    1.3100    9.1340   18.9280 C   0  0  0  0  0  0  0  0  0  0  0  0
    0.4690   10.0260   18.3220 C   0  0  0  0  0  3  0  0  0  0  0  0
    1.4260    9.1300   20.2810 N   0  0  0  0  0  0  0  0  0  0  0  0
   -0.2990   10.9590   19.0610 C   0  0  0  0  0  0  0  0  0  0  0  0
    0.7330    9.9820   21.0470 C   0  0  0  0  0  3  0  0  0  0  0  0
   -0.1300   10.8960   20.4200 C   0  0  0  0  0  3  0  0  0  0  0  0
   -1.1050   11.8560   18.3280 C   0  0  0  0  0  0  0  0  0  0  0  0
   -0.7260   13.0870   18.2550 O   0  0  0  0  0  0  0  0  0  0  0  0
   -2.3270   11.5310   17.6420 N   0  0  0  0  0  0  0  0  0  0  0  0
   -2.5450   10.8820   16.4030 C   0  0  0  0  0  2  0  0  0  0  0  0
   -3.6450   11.8530   18.2510 C   0  0  0  0  0  2  0  0  0  0  0  0
   -3.9980   11.1860   16.0110 C   0  0  0  0  0  2  0  0  0  0  0  0
   -4.6280   11.1510   17.3940 C   0  0  2  0  0  3  0  0  0  0  0  0
   -5.8430   11.8350   17.3800 O   0  0  0  0  0  0  0  0  0  0  0  0
   -6.5400   11.2800   16.9480 H   0  0  0  0  0  0  0  0  0  0  0  0
  1  4  1  0  0  0  0
  2  1  1  0  0  0  0
  2 20  1  0  0  0  0
  3  2  2  0  0  0  0
  5 10  1  0  0  0  0
  5  1  1  0  0  0  0
  6  7  2  0  0  0  0
  6  8  1  0  0  0  0
  7  9  1  0  0  0  0
  8  5  2  0  0  0  0
  9 10  2  0  0  0  0
 11 12  1  6  0  0  0
 11 13  1  0  0  0  0
 11  6  1  0  0  0  0
 13 14  1  0  0  0  0
 14 16  1  0  0  0  0
 14 15  2  0  0  0  0
 15 17  1  0  0  0  0
 16 18  1  0  0  0  0
 18 17  2  0  0  0  0
 19 16  1  0  0  0  0
 20 22  1  0  0  0  0
 21 20  2  0  0  0  0
 21 23  1  0  0  0  0
 22 24  2  0  0  0  0
 23 25  2  0  0  0  0
 25 24  1  0  0  0  0
 26 23  1  0  0  0  0
 27 26  2  0  0  0  0
 28 30  1  0  0  0  0
 28 26  1  0  0  0  0
 29 28  1  0  0  0  0
 31 29  1  0  0  0  0
 31 32  1  0  0  0  0
 32 33  1  6  0  0  0
 32 30  1  0  0  0  0
 34 33  1  0  0  0  0
M  END
>  <MODEL>
1

>  <REMARK>
 VINA RESULT:    -6.512      0.000      0.000
 INTER + INTRA:          -9.751
 INTER:                  -9.367
 INTRA:                  -0.384
 UNBOUND:                -0.384
 SMILES C[C@H](Cc1nncn1C)c1cccc(NC(=O)c2cc(C(=O)N3CC[C@H](O)C3)ccn2)c1
 SMILES IDX 15 1 16 2 17 3 14 5 10 6 11 7 32 8 12 9 13 10 2 11 1 12 3 13
 SMILES IDX 4 14 5 15 8 16 6 17 7 18 9 19 18 20 19 21 31 22 20 23 30 24
 SMILES IDX 29 25 21 26 22 27 23 28 24 29 28 30 25 31 26 32 27 33
 H PARENT 15 4 27 34
 Flexibility Score: inf

>  <TORSDO>
F 8

$$$$
KH06
 OpenBabel07182316283D

 32 35  0  0  1  0  0  0  0  0999 V2000
    4.8830    4.9190   16.6030 C   0  0  0  0  0  0  0  0  0  0  0  0
    4.5770    3.6380   16.9850 C   0  0  0  0  0  3  0  0  0  0  0  0
    3.5870    3.3500   17.8860 C   0  0  0  0  0  3  0  0  0  0  0  0
    2.8610    4.4250   18.4310 C   0  0  0  0  0  3  0  0  0  0  0  0
    3.1260    5.7240   18.0850 C   0  0  0  0  0  0  0  0  0  0  0  0
    4.1570    5.9440   17.1550 C   0  0  0  0  0  3  0  0  0  0  0  0
    5.9660    5.2200   15.6210 C   0  0  2  0  0  3  0  0  0  0  0  0
    5.6630    4.5840   14.2890 C   0  0  0  0  0  1  0  0  0  0  0  0
    7.2770    4.7280   16.1580 C   0  0  0  0  0  2  0  0  0  0  0  0
    7.5570    5.1370   17.5400 C   0  0  0  0  0  0  0  0  0  0  0  0
    7.7500    4.3340   18.5990 N   0  0  0  0  0  0  0  0  0  0  0  0
    7.6780    6.3910   18.0000 N   0  0  0  0  0  0  0  0  0  0  0  0
    7.9860    5.0340   19.6910 N   0  0  0  0  0  0  0  0  0  0  0  0
    7.9430    6.3140   19.3300 C   0  0  0  0  0  3  0  0  0  0  0  0
    7.5650    7.6520   17.2720 C   0  0  0  0  0  1  0  0  0  0  0  0
    2.4440    6.8390   18.6130 N   0  0  0  0  0  0  0  0  0  0  0  0
    2.3220    8.1100   18.0180 C   0  0  0  0  0  0  0  0  0  0  0  0
    1.9700    6.7150   19.5660 H   0  0  0  0  0  0  0  0  0  0  0  0
    2.8360    8.3420   16.9210 O   0  0  0  0  0  0  0  0  0  0  0  0
    1.5680    9.1950   18.7090 C   0  0  0  0  0  0  0  0  0  0  0  0
    1.1700   10.3460   18.2050 C   0  0  0  0  0  3  0  0  0  0  0  0
    1.1230    9.1880   20.0940 C   0  0  0  0  0  0  0  0  0  0  0  0
    0.4620   11.1220   19.2240 C   0  0  0  0  0  0  0  0  0  0  0  0
    0.4220   10.4420   20.3710 C   0  0  0  0  0  0  0  0  0  0  0  0
    1.0880    8.5100   21.2280 C   0  0  0  0  0  3  0  0  0  0  0  0
   -0.2560   12.7080   19.0470 Cl  0  0  0  0  0  0  0  0  0  0  0  0
   -0.0290   10.4430   21.7660 C   0  0  0  0  0  0  0  0  0  0  0  0
    0.3800    9.2820   22.2550 C   0  0  0  0  0  3  0  0  0  0  0  0
   -0.7800   11.5260   22.4530 C   0  0  0  0  0  0  0  0  0  0  0  0
   -1.2340   11.0940   23.6790 F   0  0  0  0  0  0  0  0  0  0  0  0
   -1.8940   11.9090   21.7250 F   0  0  0  0  0  0  0  0  0  0  0  0
    0.0260   12.6370   22.5590 F   0  0  0  0  0  0  0  0  0  0  0  0
  1  2  2  0  0  0  0
  1  6  1  0  0  0  0
  2  3  1  0  0  0  0
  3  4  2  0  0  0  0
  5  4  1  0  0  0  0
  5 16  1  0  0  0  0
  6  5  2  0  0  0  0
  7  8  1  6  0  0  0
  7  9  1  0  0  0  0
  7  1  1  0  0  0  0
  9 10  1  0  0  0  0
 10 12  1  0  0  0  0
 10 11  2  0  0  0  0
 11 13  1  0  0  0  0
 12 14  1  0  0  0  0
 14 13  2  0  0  0  0
 15 12  1  0  0  0  0
 16 18  1  0  0  0  0
 17 16  1  0  0  0  0
 17 20  1  0  0  0  0
 19 17  2  0  0  0  0
 20 22  1  0  0  0  0
 21 20  2  0  0  0  0
 21 23  1  0  0  0  0
 22 24  1  0  0  0  0
 22 25  2  0  0  0  0
 23 24  2  0  0  0  0
 24 27  1  0  0  0  0
 25 28  1  0  0  0  0
 26 23  1  0  0  0  0
 27 28  2  0  0  0  0
 27 29  1  0  0  0  0
 29 32  1  0  0  0  0
 29 30  1  0  0  0  0
 31 29  1  0  0  0  0
M  END
>  <MODEL>
1

>  <REMARK>
 VINA RESULT:    -7.227      0.000      0.000
 INTER + INTRA:         -10.216
 INTER:                  -9.762
 INTRA:                  -0.454
 UNBOUND:                -0.454
 SMILES C[C@H](Cc1nncn1C)c1cccc(NC(=O)C2=CC(Cl)=C3C2=CC=C3C(F)(F)F)c1
 SMILES IDX 10 1 11 2 12 3 13 4 14 5 31 6 2 7 1 8 3 9 4 10 5 11 8 12
 SMILES IDX 6 13 7 14 9 15 15 16 16 17 17 19 18 20 19 21 23 22 20 23
 SMILES IDX 22 24 24 25 21 26 26 27 25 28 27 29 28 30 29 31 30 32
 H PARENT 15 18
 Flexibility Score: inf

>  <TORSDO>
F 6

$$$$
KH07
 OpenBabel07182316283D

 34 38  0  0  1  0  0  0  0  0999 V2000
   -0.0570   10.6790   20.9840 C   0  0  0  0  0  0  0  0  0  0  0  0
   -0.6420   11.3430   19.9330 C   0  0  0  0  0  3  0  0  0  0  0  0
   -0.4400   10.8880   18.6410 C   0  0  0  0  0  0  0  0  0  0  0  0
    0.3290    9.7990   18.4340 N   0  0  0  0  0  0  0  0  0  0  0  0
    0.9120    9.1320   19.4440 C   0  0  0  0  0  0  0  0  0  0  0  0
    0.7160    9.5770   20.7290 C   0  0  0  0  0  3  0  0  0  0  0  0
   -0.2500   11.1350   22.3900 C   0  0  2  0  0  3  0  0  0  0  0  0
   -0.1620    9.8900   23.2540 C   0  0  0  0  0  1  0  0  0  0  0  0
   -1.5720   11.8240   22.5260 C   0  0  0  0  0  2  0  0  0  0  0  0
   -1.5010   13.1470   23.1930 C   0  0  0  0  0  0  0  0  0  0  0  0
   -0.4290   13.9870   23.1540 N   0  0  0  0  0  0  0  0  0  0  0  0
   -2.4110   13.7920   23.9400 N   0  0  0  0  0  0  0  0  0  0  0  0
   -0.7010   15.0820   23.8500 N   0  0  0  0  0  0  0  0  0  0  0  0
   -1.9430   14.9900   24.3570 C   0  0  0  0  0  3  0  0  0  0  0  0
   -3.7270   13.2880   24.2620 C   0  0  0  0  0  1  0  0  0  0  0  0
   -1.0250   11.5500   17.5340 N   0  0  0  0  0  0  0  0  0  0  0  0
   -0.4230   12.1350   16.9280 H   0  0  0  0  0  0  0  0  0  0  0  0
   -2.4320   11.4160   17.2510 C   0  0  0  0  0  3  0  0  0  0  0  0
   -2.9360   10.0160   17.0490 C   0  0  0  0  0  2  0  0  0  0  0  0
   -2.8780   10.9330   15.8740 C   0  0  0  0  0  2  0  0  0  0  0  0
    1.7290    7.9670   19.1800 N   0  0  0  0  0  0  0  0  0  0  0  0
    1.7070    6.7740   19.9750 C   0  0  0  0  0  2  0  0  0  0  0  0
    2.6620    7.8210   18.1150 C   0  0  0  0  0  0  0  0  0  0  0  0
    2.6880    5.8810   19.3080 C   0  0  0  0  0  0  0  0  0  0  0  0
    3.2550    6.4790   18.2260 C   0  0  0  0  0  0  0  0  0  0  0  0
    2.9420    8.6820   17.2250 O   0  0  0  0  0  0  0  0  0  0  0  0
    3.0620    4.5910   19.6520 C   0  0  0  0  0  0  0  0  0  0  0  0
    4.2030    5.8010   17.4720 C   0  0  0  0  0  3  0  0  0  0  0  0
    4.0000    3.9280   18.8990 C   0  0  0  0  0  3  0  0  0  0  0  0
    4.5880    4.5220   17.7960 C   0  0  0  0  0  3  0  0  0  0  0  0
    2.4350    3.9330   20.8440 C   0  0  0  0  0  0  0  0  0  0  0  0
    3.0410    2.7100   21.0370 F   0  0  0  0  0  0  0  0  0  0  0  0
    1.0930    3.6920   20.5880 F   0  0  0  0  0  0  0  0  0  0  0  0
    2.5580    4.7320   21.9710 F   0  0  0  0  0  0  0  0  0  0  0  0
  1  7  1  0  0  0  0
  2  1  2  0  0  0  0
  3  2  1  0  0  0  0
  4  3  2  0  0  0  0
  4  5  1  0  0  0  0
  5  6  2  0  0  0  0
  6  1  1  0  0  0  0
  7  9  1  0  0  0  0
  7  8  1  1  0  0  0
  9 10  1  0  0  0  0
 10 12  1  0  0  0  0
 11 10  2  0  0  0  0
 11 13  1  0  0  0  0
 12 15  1  0  0  0  0
 12 14  1  0  0  0  0
 13 14  2  0  0  0  0
 16  3  1  0  0  0  0
 17 16  1  0  0  0  0
 18 16  1  0  0  0  0
 19 18  1  0  0  0  0
 20 19  1  0  0  0  0
 20 18  1  0  0  0  0
 21  5  1  0  0  0  0
 21 22  1  0  0  0  0
 23 25  1  0  0  0  0
 23 21  1  0  0  0  0
 24 27  1  0  0  0  0
 24 22  1  0  0  0  0
 25 24  2  0  0  0  0
 26 23  2  0  0  0  0
 27 31  1  0  0  0  0
 28 30  2  0  0  0  0
 28 25  1  0  0  0  0
 29 27  2  0  0  0  0
 30 29  1  0  0  0  0
 31 32  1  0  0  0  0
 31 34  1  0  0  0  0
 33 31  1  0  0  0  0
M  END
>  <MODEL>
1

>  <REMARK>
 VINA RESULT:    -6.437      0.000      0.000
 INTER + INTRA:         -10.252
 INTER:                  -9.071
 INTRA:                  -1.182
 UNBOUND:                -1.182
 SMILES C[C@H](Cc1nncn1C)c1cc(NC2CC2)nc(N2Cc3c(cccc3C(F)(F)F)C2=O)c1
 SMILES IDX 10 1 11 2 12 3 17 4 18 5 33 6 2 7 1 8 3 9 4 10 5 11 8 12
 SMILES IDX 6 13 7 14 9 15 13 16 14 18 15 19 16 20 19 21 20 22 31 23
 SMILES IDX 21 24 22 25 32 26 26 27 23 28 25 29 24 30 27 31 28 32 29 33
 SMILES IDX 30 34
 H PARENT 13 17
 Flexibility Score: inf

>  <TORSDO>
F 7

$$$$
KH08
 OpenBabel07182316283D

 36 39  0  0  1  0  0  0  0  0999 V2000
    0.0560   11.3280   20.7900 C   0  0  0  0  0  0  0  0  0  0  0  0
   -0.5350   11.6530   22.0000 C   0  0  0  0  0  3  0  0  0  0  0  0
   -0.6130   10.7440   23.0130 C   0  0  0  0  0  3  0  0  0  0  0  0
   -0.0870    9.4670   22.8190 C   0  0  0  0  0  3  0  0  0  0  0  0
    0.5080    9.0830   21.6550 C   0  0  0  0  0  0  0  0  0  0  0  0
    0.5580   10.0690   20.6450 C   0  0  0  0  0  3  0  0  0  0  0  0
    0.1500   12.3090   19.6960 C   0  0  2  0  0  3  0  0  0  0  0  0
    1.3890   11.9180   18.8770 C   0  0  0  0  0  1  0  0  0  0  0  0
    0.4270   13.9950   20.2630 S   0  0  0  0  0  0  0  0  0  0  0  0
    2.0180   14.2050   21.0290 C   0  0  0  0  0  0  0  0  0  0  0  0
    2.3800   13.6500   22.2080 N   0  0  0  0  0  0  0  0  0  0  0  0
    3.0980   14.9040   20.6420 N   0  0  0  0  0  0  0  0  0  0  0  0
    3.6270   14.0020   22.5140 N   0  0  0  0  0  0  0  0  0  0  0  0
    4.0860   14.7860   21.5420 C   0  0  0  0  0  3  0  0  0  0  0  0
    3.1770   15.6810   19.4310 C   0  0  0  0  0  1  0  0  0  0  0  0
    1.0820    7.8320   21.3950 N   0  0  0  0  0  0  0  0  0  0  0  0
    1.8410    7.5330   20.2760 C   0  0  0  0  0  0  0  0  0  0  0  0
    0.9340    7.0440   22.0980 H   0  0  0  0  0  0  0  0  0  0  0  0
    2.1020    8.3830   19.3700 O   0  0  0  0  0  0  0  0  0  0  0  0
    2.4250    6.2000   20.0030 C   0  0  0  0  0  0  0  0  0  0  0  0
    3.6580    6.0570   19.4290 C   0  0  0  0  0  3  0  0  0  0  0  0
    1.7650    5.0660   20.2890 N   0  0  0  0  0  0  0  0  0  0  0  0
    4.2460    4.8170   19.1350 C   0  0  0  0  0  0  0  0  0  0  0  0
    2.2680    3.8500   20.0350 C   0  0  0  0  0  0  0  0  0  0  0  0
    3.5340    3.7040   19.4450 C   0  0  0  0  0  3  0  0  0  0  0  0
    5.5450    4.7620   18.5100 C   0  0  0  0  0  0  0  0  0  0  0  0
    6.5540    4.9020   19.3430 O   0  0  0  0  0  0  0  0  0  0  0  0
    5.9140    4.5910   17.1800 N   0  0  0  0  0  0  0  0  0  0  0  0
    7.3640    4.5850   16.7910 C   0  0  0  0  0  2  0  0  0  0  0  0
    5.1250    4.4030   15.9940 C   0  0  0  0  0  2  0  0  0  0  0  0
    7.3120    5.0580   15.3500 C   0  0  0  0  0  2  0  0  0  0  0  0
    6.1360    4.2570   14.8590 C   0  0  0  0  0  2  0  0  0  0  0  0
    1.5350    2.5970   20.3490 C   0  0  0  0  0  0  0  0  0  0  0  0
    0.2220    2.8240   19.9540 F   0  0  0  0  0  0  0  0  0  0  0  0
    1.6120    2.2760   21.6840 F   0  0  0  0  0  0  0  0  0  0  0  0
    2.0100    1.5950   19.5240 F   0  0  0  0  0  0  0  0  0  0  0  0
  1  2  1  0  0  0  0
  2  3  2  0  0  0  0
  4  3  1  0  0  0  0
  5  4  2  0  0  0  0
  6  1  2  0  0  0  0
  6  5  1  0  0  0  0
  7  8  1  6  0  0  0
  7  9  1  0  0  0  0
  7  1  1  0  0  0  0
  9 10  1  0  0  0  0
 10 11  2  0  0  0  0
 11 13  1  0  0  0  0
 12 10  1  0  0  0  0
 12 14  1  0  0  0  0
 14 13  2  0  0  0  0
 15 12  1  0  0  0  0
 16  5  1  0  0  0  0
 16 18  1  0  0  0  0
 17 16  1  0  0  0  0
 19 17  2  0  0  0  0
 20 17  1  0  0  0  0
 20 22  1  0  0  0  0
 21 20  2  0  0  0  0
 23 21  1  0  0  0  0
 23 25  2  0  0  0  0
 24 22  2  0  0  0  0
 24 33  1  0  0  0  0
 25 24  1  0  0  0  0
 26 23  1  0  0  0  0
 26 27  2  0  0  0  0
 28 26  1  0  0  0  0
 29 28  1  0  0  0  0
 30 28  1  0  0  0  0
 31 29  1  0  0  0  0
 32 31  1  0  0  0  0
 32 30  1  0  0  0  0
 33 35  1  0  0  0  0
 34 33  1  0  0  0  0
 36 33  1  0  0  0  0
M  END
>  <MODEL>
1

>  <REMARK>
 VINA RESULT:    -6.964      0.000      0.000
 INTER + INTRA:         -10.505
 INTER:                  -9.814
 INTRA:                  -0.691
 UNBOUND:                -0.691
 SMILES C[C@H](Sc1nncn1C)c1cccc(NC(=O)c2cc(C(=O)N3CCCC3)cc(C(F)(F)F)n2)c1
 SMILES IDX 10 1 11 2 12 3 13 4 14 5 35 6 2 7 1 8 3 9 4 10 5 11 8 12
 SMILES IDX 6 13 7 14 9 15 15 16 16 17 17 19 18 20 19 21 34 22 20 23
 SMILES IDX 29 24 28 25 21 26 22 27 23 28 24 29 27 30 25 31 26 32 30 33
 SMILES IDX 31 34 32 35 33 36
 H PARENT 15 18
 Flexibility Score: inf

>  <TORSDO>
F 7

$$$$
KH09
 OpenBabel07182316283D

 30 34  0  0  1  0  0  0  0  0999 V2000
   -0.3790   11.4460   20.9800 C   0  0  0  0  0  0  0  0  0  0  0  0
   -1.1920   11.7920   19.9160 C   0  0  0  0  0  3  0  0  0  0  0  0
   -1.0170   11.1520   18.7120 C   0  0  0  0  0  3  0  0  0  0  0  0
   -0.0550   10.1790   18.5610 C   0  0  0  0  0  3  0  0  0  0  0  0
    0.7770    9.8070   19.6210 C   0  0  0  0  0  0  0  0  0  0  0  0
    0.6080   10.4490   20.8130 C   0  0  0  0  0  0  0  0  0  0  0  0
    1.4080   10.0900   21.8580 F   0  0  0  0  0  0  0  0  0  0  0  0
   -0.5040   12.1310   22.2810 C   0  0  2  0  0  3  0  0  0  0  0  0
   -1.1320   11.0250   23.2580 C   0  0  0  0  0  1  0  0  0  0  0  0
   -1.5780   13.1660   22.3330 C   0  0  0  0  0  2  0  0  0  0  0  0
   -1.6960   14.0280   23.4960 C   0  0  0  0  0  0  0  0  0  0  0  0
   -0.8100   14.8300   24.0790 N   0  0  0  0  0  0  0  0  0  0  0  0
   -2.8790   14.1670   24.2090 N   0  0  0  0  0  0  0  0  0  0  0  0
   -1.3780   15.4550   25.1190 N   0  0  0  0  0  0  0  0  0  0  0  0
   -2.6590   15.0370   25.1890 C   0  0  0  0  0  3  0  0  0  0  0  0
   -4.0960   13.4540   23.8720 C   0  0  0  0  0  1  0  0  0  0  0  0
    1.5930    8.6260   19.4640 N   0  0  0  0  0  0  0  0  0  0  0  0
    1.8090    7.4330   20.1820 C   0  0  0  0  0  2  0  0  0  0  0  0
    2.4170    8.5200   18.2510 C   0  0  0  0  0  0  0  0  0  0  0  0
    2.6120    6.5320   19.2770 C   0  0  0  0  0  0  0  0  0  0  0  0
    3.0230    7.2280   18.1660 C   0  0  0  0  0  0  0  0  0  0  0  0
    2.5500    9.4630   17.4140 O   0  0  0  0  0  0  0  0  0  0  0  0
    2.9840    5.2290   19.4350 C   0  0  0  0  0  0  0  0  0  0  0  0
    3.8260    6.5860   17.2020 C   0  0  0  0  0  3  0  0  0  0  0  0
    3.7700    4.6330   18.4760 N   0  0  0  0  0  0  0  0  0  0  0  0
    4.1810    5.3000   17.3840 C   0  0  0  0  0  3  0  0  0  0  0  0
    2.6000    4.4100   20.6040 C   0  0  0  0  0  3  0  0  0  0  0  0
    1.1400    3.9950   20.4930 C   0  0  0  0  0  2  0  0  0  0  0  0
    2.9400    2.9220   20.4020 C   0  0  0  0  0  2  0  0  0  0  0  0
    1.5710    2.7610   19.7660 C   0  0  0  0  0  2  0  0  0  0  0  0
  1  8  1  0  0  0  0
  2  1  2  0  0  0  0
  3  2  1  0  0  0  0
  4  3  2  0  0  0  0
  4  5  1  0  0  0  0
  5  6  2  0  0  0  0
  6  1  1  0  0  0  0
  6  7  1  0  0  0  0
  8 10  1  0  0  0  0
  8  9  1  1  0  0  0
 10 11  1  0  0  0  0
 11 12  2  0  0  0  0
 11 13  1  0  0  0  0
 12 14  1  0  0  0  0
 13 15  1  0  0  0  0
 14 15  2  0  0  0  0
 16 13  1  0  0  0  0
 17  5  1  0  0  0  0
 17 18  1  0  0  0  0
 19 17  1  0  0  0  0
 20 23  1  0  0  0  0
 20 18  1  0  0  0  0
 21 19  1  0  0  0  0
 21 20  2  0  0  0  0
 22 19  2  0  0  0  0
 23 27  1  0  0  0  0
 24 26  2  0  0  0  0
 24 21  1  0  0  0  0
 25 23  2  0  0  0  0
 26 25  1  0  0  0  0
 28 27  1  0  0  0  0
 29 27  1  0  0  0  0
 30 29  1  0  0  0  0
 30 28  1  0  0  0  0
M  END
>  <MODEL>
1

>  <REMARK>
 VINA RESULT:    -5.907      0.000      0.000
 INTER + INTRA:          -8.313
 INTER:                  -7.633
 INTRA:                  -0.680
 UNBOUND:                -0.680
 SMILES C[C@H](Cc1nncn1C)c1cccc(N2Cc3c(ccnc3C3CCC3)C2=O)c1F
 SMILES IDX 10 1 11 2 12 3 13 4 14 5 29 6 30 7 2 8 1 9 3 10 4 11 5 12
 SMILES IDX 8 13 6 14 7 15 9 16 15 17 16 18 27 19 17 20 18 21 28 22
 SMILES IDX 22 23 19 24 21 25 20 26 23 27 24 28 26 29 25 30
 H PARENT
 Flexibility Score: inf

>  <TORSDO>
F 5

$$$$
KH10
 OpenBabel07182316283D

 33 36  0  0  1  0  0  0  0  0999 V2000
    0.0660   10.7520   21.0810 C   0  0  0  0  0  0  0  0  0  0  0  0
   -0.3800   11.4740   19.9850 C   0  0  0  0  0  3  0  0  0  0  0  0
   -0.0410   11.1350   18.6950 C   0  0  0  0  0  3  0  0  0  0  0  0
    0.7790   10.0330   18.4430 C   0  0  0  0  0  3  0  0  0  0  0  0
    1.2310    9.3060   19.4910 C   0  0  0  0  0  0  0  0  0  0  0  0
    0.8680    9.6770   20.7950 C   0  0  0  0  0  3  0  0  0  0  0  0
   -0.3250   11.1640   22.4620 C   0  0  2  0  0  3  0  0  0  0  0  0
   -0.3490    9.9030   23.3170 C   0  0  0  0  0  1  0  0  0  0  0  0
   -1.6620   11.8460   22.4830 C   0  0  0  0  0  2  0  0  0  0  0  0
   -1.6170   13.1240   23.2020 C   0  0  0  0  0  0  0  0  0  0  0  0
   -0.5170   13.9360   23.2230 N   0  0  0  0  0  0  0  0  0  0  0  0
   -2.5140   13.7290   23.9760 N   0  0  0  0  0  0  0  0  0  0  0  0
   -0.7500   14.9790   23.9760 N   0  0  0  0  0  0  0  0  0  0  0  0
   -1.9820   14.8700   24.4520 C   0  0  0  0  0  3  0  0  0  0  0  0
   -3.8340   13.2730   24.2940 C   0  0  0  0  0  1  0  0  0  0  0  0
    2.0290    8.1520   19.2680 N   0  0  0  0  0  0  0  0  0  0  0  0
    2.6840    7.7780   18.1090 C   0  0  0  0  0  0  0  0  0  0  0  0
    2.1180    7.4990   20.1110 H   0  0  0  0  0  0  0  0  0  0  0  0
    2.5860    8.5140   17.0670 O   0  0  0  0  0  0  0  0  0  0  0  0
    3.4750    6.5640   18.0550 C   0  0  0  0  0  0  0  0  0  0  0  0
    2.7910    5.3790   17.7660 C   0  0  0  0  0  3  0  0  0  0  0  0
    4.8100    6.5460   18.2730 N   0  0  0  0  0  0  0  0  0  0  0  0
    3.4740    4.1770   17.7010 C   0  0  0  0  0  0  0  0  0  0  0  0
    5.4990    5.3960   18.2180 C   0  0  0  0  0  0  0  0  0  0  0  0
    4.8250    4.2300   17.9360 C   0  0  0  0  0  3  0  0  0  0  0  0
    2.7260    2.9270   17.3860 C   0  0  1  0  0  3  0  0  0  0  0  0
    2.8980    1.9200   18.5040 C   0  0  0  0  0  2  0  0  0  0  0  0
    1.3790    3.0050   17.7060 O   0  0  0  0  0  0  0  0  0  0  0  0
    1.5200    2.3350   18.8910 C   0  0  0  0  0  2  0  0  0  0  0  0
    6.9890    5.4230   18.4530 C   0  0  0  0  0  0  0  0  0  0  0  0
    7.2270    5.6120   19.7810 F   0  0  0  0  0  0  0  0  0  0  0  0
    7.4260    6.5520   17.7400 F   0  0  0  0  0  0  0  0  0  0  0  0
    7.6170    4.3460   17.8950 F   0  0  0  0  0  0  0  0  0  0  0  0
  1  7  1  0  0  0  0
  2  1  2  0  0  0  0
  3  2  1  0  0  0  0
  4  3  2  0  0  0  0
  4  5  1  0  0  0  0
  5  6  2  0  0  0  0
  6  1  1  0  0  0  0
  7  9  1  0  0  0  0
  7  8  1  1  0  0  0
  9 10  1  0  0  0  0
 10 11  2  0  0  0  0
 10 12  1  0  0  0  0
 11 13  1  0  0  0  0
 12 15  1  0  0  0  0
 12 14  1  0  0  0  0
 13 14  2  0  0  0  0
 16  5  1  0  0  0  0
 16 18  1  0  0  0  0
 17 16  1  0  0  0  0
 19 17  2  0  0  0  0
 20 17  1  0  0  0  0
 20 22  1  0  0  0  0
 21 20  2  0  0  0  0
 23 21  1  0  0  0  0
 23 25  2  0  0  0  0
 24 22  2  0  0  0  0
 24 30  1  0  0  0  0
 25 24  1  0  0  0  0
 26 23  1  1  0  0  0
 26 28  1  0  0  0  0
 26 27  1  0  0  0  0
 27 29  1  0  0  0  0
 28 29  1  0  0  0  0
 30 31  1  0  0  0  0
 32 30  1  0  0  0  0
 33 30  1  0  0  0  0
M  END
>  <MODEL>
1

>  <REMARK>
 VINA RESULT:    -6.999      0.000      0.000
 INTER + INTRA:         -10.321
 INTER:                  -9.864
 INTRA:                  -0.457
 UNBOUND:                -0.457
 SMILES C[C@H](Cc1nncn1C)c1cccc(NC(=O)c2cc([C@H]3CCO3)cc(C(F)(F)F)n2)c1
 SMILES IDX 10 1 11 2 12 3 13 4 14 5 32 6 2 7 1 8 3 9 4 10 5 11 8 12
 SMILES IDX 6 13 7 14 9 15 15 16 16 17 17 19 18 20 19 21 31 22 20 23
 SMILES IDX 26 24 25 25 21 26 22 27 24 28 23 29 27 30 28 31 29 32 30 33
 H PARENT 15 18
 Flexibility Score: inf

>  <TORSDO>
F 7

$$$$
MR01
 OpenBabel07182316283D

 41 45  0  0  1  0  0  0  0  0999 V2000
    1.4840   13.4420   18.6910 C   0  0  0  0  0  0  0  0  0  0  0  0
    2.1230   12.2800   18.2300 C   0  0  0  0  0  3  0  0  0  0  0  0
    1.4590   11.1320   17.9320 C   0  0  0  0  0  0  0  0  0  0  0  0
    0.1060   11.1650   18.1100 N   0  0  0  0  0  0  0  0  0  0  0  0
   -0.5800   12.2240   18.5440 C   0  0  0  0  0  0  0  0  0  0  0  0
    0.1200   13.3700   18.8350 C   0  0  0  0  0  3  0  0  0  0  0  0
    2.2610   14.6670   18.9990 C   0  0  2  0  0  3  0  0  0  0  0  0
    1.5230   15.9130   18.5710 C   0  0  0  0  0  1  0  0  0  0  0  0
    3.6140   14.6520   18.3180 C   0  0  0  0  0  2  0  0  0  0  0  0
    4.6830   15.1220   19.2380 C   0  0  0  0  0  0  0  0  0  0  0  0
    4.5380   15.5810   20.4980 N   0  0  0  0  0  0  0  0  0  0  0  0
    6.0230   15.1790   18.9840 N   0  0  0  0  0  0  0  0  0  0  0  0
    5.7340   15.9000   20.9780 N   0  0  0  0  0  0  0  0  0  0  0  0
    6.6750   15.6570   20.0510 C   0  0  0  0  0  3  0  0  0  0  0  0
    6.6530   14.7760   17.7320 C   0  0  0  0  0  1  0  0  0  0  0  0
    2.0020    9.9220   17.4670 N   0  0  0  0  0  0  0  0  0  0  0  0
    2.2190    8.7610   18.2160 C   0  0  0  0  0  0  0  0  0  0  0  0
    2.2790    9.8740   16.4380 H   0  0  0  0  0  0  0  0  0  0  0  0
    1.9260    8.7270   19.4150 O   0  0  0  0  0  0  0  0  0  0  0  0
    2.7790    7.5650   17.6610 N   0  0  0  0  0  0  0  0  0  0  0  0
    3.0450    7.5300   16.6640 H   0  0  0  0  0  0  0  0  0  0  0  0
    2.9800    6.3980   18.4810 C   0  0  0  0  0  3  0  0  0  0  0  0
    4.3590    5.8190   18.3400 C   0  0  0  0  0  2  0  0  0  0  0  0
    1.9010    5.3940   18.0840 C   0  0  0  0  0  2  0  0  0  0  0  0
    4.4800    4.7750   17.2750 C   0  0  0  0  0  2  0  0  0  0  0  0
    2.3910    4.0050   18.4200 C   0  0  0  0  0  2  0  0  0  0  0  0
    3.4660    3.6770   17.3790 C   0  0  0  0  0  2  0  0  0  0  0  0
   -1.9860   12.1470   18.6910 N   0  0  0  0  0  0  0  0  0  0  0  0
   -2.7230   12.6270   19.8370 C   0  0  0  0  0  2  0  0  0  0  0  0
   -2.9090   11.5960   17.7640 C   0  0  0  0  0  0  0  0  0  0  0  0
   -4.1520   12.3270   19.5360 C   0  0  0  0  0  0  0  0  0  0  0  0
   -4.2670   11.7160   18.3100 C   0  0  0  0  0  0  0  0  0  0  0  0
   -2.6600   11.0740   16.6410 O   0  0  0  0  0  0  0  0  0  0  0  0
   -5.2800   12.5620   20.2680 C   0  0  0  0  0  0  0  0  0  0  0  0
   -5.5110   11.3590   17.8530 C   0  0  0  0  0  3  0  0  0  0  0  0
   -6.5300   12.2040   19.8110 C   0  0  0  0  0  3  0  0  0  0  0  0
   -6.6560   11.5960   18.5950 C   0  0  0  0  0  3  0  0  0  0  0  0
   -5.2090   13.2220   21.6070 C   0  0  0  0  0  0  0  0  0  0  0  0
   -4.7960   14.5330   21.5060 F   0  0  0  0  0  0  0  0  0  0  0  0
   -4.3640   12.5290   22.4440 F   0  0  0  0  0  0  0  0  0  0  0  0
   -6.4560   13.2410   22.2050 F   0  0  0  0  0  0  0  0  0  0  0  0
  1  6  1  0  0  0  0
  1  7  1  0  0  0  0
  2  1  2  0  0  0  0
  3  4  2  0  0  0  0
  3  2  1  0  0  0  0
  4  5  1  0  0  0  0
  5 28  1  0  0  0  0
  5  6  2  0  0  0  0
  7  8  1  6  0  0  0
  9  7  1  0  0  0  0
  9 10  1  0  0  0  0
 10 11  2  0  0  0  0
 11 13  1  0  0  0  0
 12 10  1  0  0  0  0
 12 14  1  0  0  0  0
 14 13  2  0  0  0  0
 15 12  1  0  0  0  0
 16  3  1  0  0  0  0
 16 17  1  0  0  0  0
 17 19  2  0  0  0  0
 18 16  1  0  0  0  0
 20 17  1  0  0  0  0
 20 22  1  0  0  0  0
 21 20  1  0  0  0  0
 23 22  1  0  0  0  0
 24 26  1  0  0  0  0
 24 22  1  0  0  0  0
 25 27  1  0  0  0  0
 25 23  1  0  0  0  0
 27 26  1  0  0  0  0
 28 29  1  0  0  0  0
 30 32  1  0  0  0  0
 30 28  1  0  0  0  0
 31 29  1  0  0  0  0
 31 34  1  0  0  0  0
 32 31  2  0  0  0  0
 33 30  2  0  0  0  0
 34 38  1  0  0  0  0
 35 32  1  0  0  0  0
 35 37  2  0  0  0  0
 36 34  2  0  0  0  0
 37 36  1  0  0  0  0
 38 41  1  0  0  0  0
 38 40  1  0  0  0  0
 39 38  1  0  0  0  0
M  END
>  <MODEL>
1

>  <REMARK>
 VINA RESULT:    -5.099      0.000      0.000
 INTER + INTRA:          -8.470
 INTER:                  -7.186
 INTRA:                  -1.284
 UNBOUND:                -1.284
 SMILES C[C@H](Cc1nncn1C)c1cc(NC(=O)NC2CCCCC2)nc(N2Cc3c(cccc3C(F)(F)F)C2=O)c1
 SMILES IDX 10 1 11 2 12 3 23 4 24 5 39 6 2 7 1 8 3 9 4 10 5 11 8 12
 SMILES IDX 6 13 7 14 9 15 13 16 14 17 15 19 16 20 17 22 18 23 22 24
 SMILES IDX 19 25 21 26 20 27 25 28 26 29 37 30 27 31 28 32 38 33 32 34
 SMILES IDX 29 35 31 36 30 37 33 38 34 39 35 40 36 41
 H PARENT 13 18 16 21
 Flexibility Score: inf

>  <TORSDO>
F 7

$$$$
MR02
 OpenBabel07182316283D

 35 39  0  0  1  0  0  0  0  0999 V2000
   -0.8430   11.6700   21.2960 C   0  0  0  0  0  0  0  0  0  0  0  0
   -1.0760   11.4010   22.6430 C   0  0  0  0  0  3  0  0  0  0  0  0
   -0.5780   10.2760   23.2670 C   0  0  0  0  0  3  0  0  0  0  0  0
    0.1660    9.4110   22.5140 C   0  0  0  0  0  3  0  0  0  0  0  0
    0.4340    9.6210   21.1690 C   0  0  0  0  0  0  0  0  0  0  0  0
   -0.0810   10.7560   20.5830 C   0  0  0  0  0  3  0  0  0  0  0  0
   -1.4250   12.8830   20.7040 C   0  0  2  0  0  3  0  0  0  0  0  0
   -2.5780   12.5310   19.7860 C   0  0  0  0  0  1  0  0  0  0  0  0
   -0.4820   13.7610   19.9590 C   0  0  0  0  0  2  0  0  0  0  0  0
    0.7930   14.0530   20.6590 C   0  0  0  0  0  0  0  0  0  0  0  0
    0.9020   14.4540   21.9610 N   0  0  0  0  0  0  0  0  0  0  0  0
    2.0500   13.9730   20.2010 N   0  0  0  0  0  0  0  0  0  0  0  0
    2.1620   14.6150   22.2940 N   0  0  0  0  0  0  0  0  0  0  0  0
    2.8660   14.3170   21.2060 C   0  0  0  0  0  3  0  0  0  0  0  0
    2.4620   13.5820   18.8920 C   0  0  0  0  0  1  0  0  0  0  0  0
    1.2250    8.6700   20.4270 N   0  0  0  0  0  0  0  0  0  0  0  0
    1.3570    7.2850   20.7610 C   0  0  0  0  0  2  0  0  0  0  0  0
    1.9980    8.9000   19.2660 C   0  0  0  0  0  0  0  0  0  0  0  0
    2.2260    6.6950   19.7550 C   0  0  0  0  0  0  0  0  0  0  0  0
    2.6220    7.6520   18.8530 C   0  0  0  0  0  0  0  0  0  0  0  0
    2.1140   10.0230   18.6970 O   0  0  0  0  0  0  0  0  0  0  0  0
    2.6560    5.3700   19.6330 C   0  0  0  0  0  0  0  0  0  0  0  0
    3.4620    7.2810   17.8130 C   0  0  0  0  0  3  0  0  0  0  0  0
    3.4870    5.0470   18.5880 C   0  0  0  0  0  3  0  0  0  0  0  0
    3.9130    5.9830   17.6530 C   0  0  0  0  0  0  0  0  0  0  0  0
    2.2440    4.3160   20.5900 C   0  0  0  0  0  0  0  0  0  0  0  0
    2.5890    4.6790   21.8970 F   0  0  0  0  0  0  0  0  0  0  0  0
    0.8860    4.0350   20.4950 F   0  0  0  0  0  0  0  0  0  0  0  0
    2.9040    3.1270   20.3500 F   0  0  0  0  0  0  0  0  0  0  0  0
    4.8090    5.6150   16.5330 C   0  0  0  0  0  3  0  0  0  0  0  0
    5.0260    4.1070   16.4900 C   0  0  0  0  0  2  0  0  0  0  0  0
    6.1530    6.2510   16.6790 C   0  0  0  0  0  2  0  0  0  0  0  0
    5.5420    3.8130   15.0760 C   0  0  0  0  0  2  0  0  0  0  0  0
    7.2220    5.4670   15.9370 C   0  0  0  0  0  2  0  0  0  0  0  0
    6.6580    4.7660   14.7170 C   0  0  0  0  0  2  0  0  0  0  0  0
  1  2  1  0  0  0  0
  2  3  2  0  0  0  0
  4  3  1  0  0  0  0
  5  4  2  0  0  0  0
  6  5  1  0  0  0  0
  6  1  2  0  0  0  0
  7  8  1  6  0  0  0
  7  1  1  0  0  0  0
  9 10  1  0  0  0  0
  9  7  1  0  0  0  0
 10 11  2  0  0  0  0
 11 13  1  0  0  0  0
 12 10  1  0  0  0  0
 12 14  1  0  0  0  0
 14 13  2  0  0  0  0
 15 12  1  0  0  0  0
 16 17  1  0  0  0  0
 16  5  1  0  0  0  0
 18 16  1  0  0  0  0
 19 17  1  0  0  0  0
 20 18  1  0  0  0  0
 20 19  2  0  0  0  0
 21 18  2  0  0  0  0
 22 19  1  0  0  0  0
 22 26  1  0  0  0  0
 23 20  1  0  0  0  0
 24 22  2  0  0  0  0
 25 23  2  0  0  0  0
 25 24  1  0  0  0  0
 26 27  1  0  0  0  0
 28 26  1  0  0  0  0
 29 26  1  0  0  0  0
 30 32  1  0  0  0  0
 30 25  1  0  0  0  0
 31 30  1  0  0  0  0
 33 31  1  0  0  0  0
 34 32  1  0  0  0  0
 35 33  1  0  0  0  0
 35 34  1  0  0  0  0
M  END
>  <MODEL>
1

>  <REMARK>
 VINA RESULT:    -6.704      0.000      0.000
 INTER + INTRA:         -10.677
 INTER:                  -9.055
 INTRA:                  -1.622
 UNBOUND:                -1.622
 SMILES C[C@H](Cc1nncn1C)c1cccc(N2Cc3c(cc(C4CCCCC4)cc3C(F)(F)F)C2=O)c1
 SMILES IDX 10 1 11 2 12 3 13 4 14 5 35 6 2 7 1 8 3 9 4 10 5 11 8 12
 SMILES IDX 6 13 7 14 9 15 15 16 16 17 33 18 17 19 18 20 34 21 28 22
 SMILES IDX 19 23 27 24 20 25 29 26 30 27 31 28 32 29 21 30 22 31 26 32
 SMILES IDX 23 33 25 34 24 35
 H PARENT
 Flexibility Score: inf

>  <TORSDO>
F 6

$$$$
MR03
 OpenBabel07182316283D

 30 32  0  0  1  0  0  0  0  0999 V2000
   -2.2080   10.8400   17.5670 C   0  0  0  0  0  0  0  0  0  0  0  0
   -1.7840   12.0810   17.9960 C   0  0  0  0  0  3  0  0  0  0  0  0
   -0.5740   12.2620   18.6350 C   0  0  0  0  0  3  0  0  0  0  0  0
    0.2080   11.2250   18.8430 N   0  0  0  0  0  0  0  0  0  0  0  0
   -0.1280    9.9930   18.4590 C   0  0  0  0  0  0  0  0  0  0  0  0
   -1.3300    9.7990   17.8240 C   0  0  0  0  0  3  0  0  0  0  0  0
   -3.5120   10.6620   16.8830 C   0  0  2  0  0  3  0  0  0  0  0  0
   -3.3320   10.7660   15.3830 C   0  0  0  0  0  1  0  0  0  0  0  0
   -4.6910   11.9570   17.3630 S   0  0  0  0  0  0  0  0  0  0  0  0
   -5.7520   11.4280   18.6760 C   0  0  0  0  0  0  0  0  0  0  0  0
   -6.6940   10.4660   18.5430 N   0  0  0  0  0  0  0  0  0  0  0  0
   -5.8300   11.8320   19.9500 N   0  0  0  0  0  0  0  0  0  0  0  0
   -7.3050   10.3130   19.7060 N   0  0  0  0  0  0  0  0  0  0  0  0
   -6.7870   11.1580   20.6170 C   0  0  0  0  0  3  0  0  0  0  0  0
   -4.9930   12.8570   20.5210 C   0  0  0  0  0  1  0  0  0  0  0  0
    0.7730    8.9100   18.7210 N   0  0  0  0  0  0  0  0  0  0  0  0
    1.9380    8.6820   17.9650 C   0  0  0  0  0  0  0  0  0  0  0  0
    0.5750    8.2390   19.5140 H   0  0  0  0  0  0  0  0  0  0  0  0
    2.2040    9.4590   17.0140 O   0  0  0  0  0  0  0  0  0  0  0  0
    2.8570    7.5670   18.2440 C   0  0  0  0  0  0  0  0  0  0  0  0
    2.6660    6.7250   19.3180 C   0  0  0  0  0  3  0  0  0  0  0  0
    3.9220    7.3240   17.4610 N   0  0  0  0  0  0  0  0  0  0  0  0
    3.5030    5.6700   19.6130 C   0  0  0  0  0  3  0  0  0  0  0  0
    4.7870    6.3140   17.6810 C   0  0  0  0  0  0  0  0  0  0  0  0
    4.5850    5.4730   18.7650 C   0  0  0  0  0  0  0  0  0  0  0  0
    5.8850    6.0600   16.8770 O   0  0  0  0  0  0  0  0  0  0  0  0
    5.7950    5.6690   15.5300 C   0  0  0  0  0  1  0  0  0  0  0  0
    5.4820    4.4130   19.0050 N   0  0  0  0  0  0  0  0  0  0  0  0
    6.6930    4.6360   19.0710 O   0  0  0  0  0  0  0  0  0  0  0  0
    5.0120    3.1470   19.1630 O   0  0  0  0  0  0  0  0  0  0  0  0
  1  6  2  0  0  0  0
  1  2  1  0  0  0  0
  2  3  2  0  0  0  0
  3  4  1  0  0  0  0
  5 16  1  0  0  0  0
  5  4  2  0  0  0  0
  6  5  1  0  0  0  0
  7  8  1  6  0  0  0
  7  9  1  0  0  0  0
  7  1  1  0  0  0  0
  9 10  1  0  0  0  0
 10 12  1  0  0  0  0
 11 10  2  0  0  0  0
 11 13  1  0  0  0  0
 12 15  1  0  0  0  0
 12 14  1  0  0  0  0
 13 14  2  0  0  0  0
 16 18  1  0  0  0  0
 17 20  1  0  0  0  0
 17 16  1  0  0  0  0
 19 17  2  0  0  0  0
 20 21  2  0  0  0  0
 21 23  1  0  0  0  0
 22 24  2  0  0  0  0
 22 20  1  0  0  0  0
 24 25  1  0  0  0  0
 25 28  1  0  0  0  0
 25 23  2  0  0  0  0
 26 24  1  0  0  0  0
 27 26  1  0  0  0  0
 28 29  2  0  0  0  0
 28 30  2  0  0  0  0
M  END
>  <MODEL>
1

>  <REMARK>
 VINA RESULT:    -5.270      0.000      0.000
 INTER + INTRA:          -8.259
 INTER:                  -7.427
 INTRA:                  -0.832
 UNBOUND:                -0.832
 SMILES COc1nc(C(=O)Nc2cc([C@H](C)Sc3nncn3C)ccn2)ccc1[N+](=O)[O-]
 SMILES IDX 11 1 21 2 22 3 23 4 9 5 10 6 12 7 13 8 14 9 15 10 16 11
 SMILES IDX 19 12 17 13 18 14 20 15 8 16 6 17 7 19 5 20 24 21 4 22 25 23
 SMILES IDX 3 24 26 25 2 26 1 27 27 28 28 29 29 30
 H PARENT 8 18
 Flexibility Score: inf

>  <TORSDO>
F 7

$$$$
MR04
 OpenBabel07182316283D

 33 36  0  0  1  0  0  0  0  0999 V2000
    0.5660   10.5160   20.9310 C   0  0  0  0  0  0  0  0  0  0  0  0
    0.6630   11.4540   19.9450 C   0  0  0  0  0  3  0  0  0  0  0  0
    1.1400   11.0970   18.7000 C   0  0  0  0  0  3  0  0  0  0  0  0
    1.4950    9.7900   18.5320 C   0  0  0  0  0  3  0  0  0  0  0  0
    1.3920    8.8340   19.5590 C   0  0  0  0  0  0  0  0  0  0  0  0
    0.9170    9.2160   20.7670 C   0  0  0  0  0  3  0  0  0  0  0  0
    0.0950   10.9850   22.3110 C   0  0  2  0  0  3  0  0  0  0  0  0
   -0.2960    9.7940   23.0960 C   0  0  0  0  0  1  0  0  0  0  0  0
   -1.0680   11.9070   21.9110 C   0  0  0  0  0  2  0  0  0  0  0  0
   -1.1210   13.0680   22.7760 C   0  0  0  0  0  0  0  0  0  0  0  0
   -0.2370   14.0490   22.9470 N   0  0  0  0  0  0  0  0  0  0  0  0
   -2.2020   13.3650   23.5500 N   0  0  0  0  0  0  0  0  0  0  0  0
   -0.7130   14.9430   23.7880 N   0  0  0  0  0  0  0  0  0  0  0  0
   -1.9250   14.5210   24.1590 C   0  0  0  0  0  3  0  0  0  0  0  0
   -3.3980   12.5800   23.6160 C   0  0  0  0  0  1  0  0  0  0  0  0
    1.8840    7.5990   19.2330 N   0  0  0  0  0  0  0  0  0  0  0  0
    2.0080    6.4130   20.0200 C   0  0  0  0  0  0  0  0  0  0  0  0
    2.2220    7.5150   18.2060 H   0  0  0  0  0  0  0  0  0  0  0  0
    1.6690    6.4490   21.2200 O   0  0  0  0  0  0  0  0  0  0  0  0
    2.4860    5.2610   19.3600 N   0  0  0  0  0  0  0  0  0  0  0  0
    1.9070    3.9580   19.4960 C   0  0  0  0  0  2  0  0  0  0  0  0
    3.6670    5.3440   18.5680 C   0  0  0  0  0  0  0  0  0  0  0  0
    3.0180    3.2220   20.3010 C   0  0  0  0  0  2  0  0  0  0  0  0
    4.5250    4.2100   18.6560 C   0  0  0  0  0  0  0  0  0  0  0  0
    3.9610    6.3870   17.8300 N   0  0  0  0  0  0  0  0  0  0  0  0
    4.1410    3.1630   19.4580 O   0  0  0  0  0  0  0  0  0  0  0  0
    5.7060    4.2230   17.9430 C   0  0  0  0  0  3  0  0  0  0  0  0
    5.1320    6.3950   17.1230 C   0  0  0  0  0  3  0  0  0  0  0  0
    6.0150    5.3350   17.1670 C   0  0  0  0  0  0  0  0  0  0  0  0
    7.3310    5.2980   16.4770 C   0  0  0  0  0  0  0  0  0  0  0  0
    7.9420    6.5130   16.5200 F   0  0  0  0  0  0  0  0  0  0  0  0
    7.2270    4.8050   15.1960 F   0  0  0  0  0  0  0  0  0  0  0  0
    8.0920    4.3540   17.1910 F   0  0  0  0  0  0  0  0  0  0  0  0
  1  7  1  0  0  0  0
  2  1  2  0  0  0  0
  3  2  1  0  0  0  0
  4  3  2  0  0  0  0
  4  5  1  0  0  0  0
  5  6  2  0  0  0  0
  6  1  1  0  0  0  0
  7  8  1  1  0  0  0
  9  7  1  0  0  0  0
  9 10  1  0  0  0  0
 10 11  2  0  0  0  0
 10 12  1  0  0  0  0
 11 13  1  0  0  0  0
 12 15  1  0  0  0  0
 12 14  1  0  0  0  0
 13 14  2  0  0  0  0
 16  5  1  0  0  0  0
 16 17  1  0  0  0  0
 17 19  2  0  0  0  0
 18 16  1  0  0  0  0
 20 21  1  0  0  0  0
 20 17  1  0  0  0  0
 21 23  1  0  0  0  0
 22 24  1  0  0  0  0
 22 20  1  0  0  0  0
 24 26  1  0  0  0  0
 25 22  2  0  0  0  0
 26 23  1  0  0  0  0
 27 24  2  0  0  0  0
 28 29  2  0  0  0  0
 28 25  1  0  0  0  0
 29 27  1  0  0  0  0
 30 31  1  0  0  0  0
 30 29  1  0  0  0  0
 30 33  1  0  0  0  0
 32 30  1  0  0  0  0
M  END
>  <MODEL>
1

>  <REMARK>
 VINA RESULT:    -5.552      0.000      0.000
 INTER + INTRA:          -8.573
 INTER:                  -7.500
 INTRA:                  -1.074
 UNBOUND:                -1.074
 SMILES C[C@H](Cc1nncn1C)c1cccc(NC(=O)N2CCOc3cc(C(F)(F)F)cnc32)c1
 SMILES IDX 10 1 11 2 12 3 13 4 14 5 32 6 2 7 1 8 3 9 4 10 5 11 8 12
 SMILES IDX 6 13 7 14 9 15 15 16 16 17 17 19 18 20 19 21 31 22 20 23
 SMILES IDX 22 24 30 25 21 26 23 27 29 28 24 29 25 30 26 31 27 32 28 33
 H PARENT 15 18
 Flexibility Score: inf

>  <TORSDO>
F 6

$$$$
MR05
 OpenBabel07182316283D

 28 27  0  0  1  0  0  0  0  0999 V2000
    0.6100   10.1050   19.0830 C   0  0  0  0  0  0  0  0  0  0  0  0
    0.4430    9.7410   20.3800 C   0  0  0  0  0  3  0  0  0  0  0  0
    1.1430    8.6650   20.8700 C   0  0  0  0  0  3  0  0  0  0  0  0
    2.0350    7.9800   20.0860 N   0  0  0  0  0  0  0  0  0  0  0  0
    2.2250    8.4180   18.7800 C   0  0  0  0  0  0  0  0  0  0  0  0
    1.5120    9.4310   18.3400 C   0  0  0  0  0  3  0  0  0  0  0  0
   -0.0370   11.2230   18.3780 C   0  0  2  0  0  3  0  0  0  0  0  0
    0.8440   12.4450   18.6720 C   0  0  0  0  0  1  0  0  0  0  0  0
   -1.8150   11.4390   18.7790 S   0  0  0  0  0  0  0  0  0  0  0  0
   -2.5750   10.7450   17.2500 C   0  0  0  0  0  0  0  0  0  0  0  0
   -1.9840    9.8870   16.4100 N   0  0  0  0  0  0  0  0  0  0  0  0
   -3.6330   11.2680   16.6450 N   0  0  0  0  0  0  0  0  0  0  0  0
   -2.6570    9.9820   15.1980 N   0  0  0  0  0  0  0  0  0  0  0  0
   -3.6420   10.8080   15.4040 C   0  0  0  0  0  3  0  0  0  0  0  0
   -4.7410   11.9300   17.3430 C   0  0  0  0  0  1  0  0  0  0  0  0
    3.1180    7.6340   18.0740 N   0  0  0  0  0  0  0  0  0  0  0  0
    3.1660    6.2520   18.1320 C   0  0  0  0  0  0  0  0  0  0  0  0
    4.0930    8.1330   17.6270 H   0  0  0  0  0  0  0  0  0  0  0  0
    2.1660    5.5410   18.4990 O   0  0  0  0  0  0  0  0  0  0  0  0
    4.5170    5.7120   17.7800 C   0  0  0  0  0  0  0  0  0  0  0  0
    4.6070    4.7240   16.7820 C   0  0  0  0  0  3  0  0  0  0  0  0
    5.6090    6.0400   18.3510 N   0  0  0  0  0  0  0  0  0  0  0  0
    6.4810    4.4190   16.8020 S   0  0  0  0  0  0  0  0  0  0  0  0
    6.6670    5.6580   18.1440 C   0  0  0  0  0  3  0  0  0  0  0  0
    7.9120    5.9170   18.8600 C   0  0  0  0  0 15  0  0  0  0  0  0
    8.3230    7.2150   18.5170 F   0  0  0  0  0  0  0  0  0  0  0  0
    8.4420    6.6550   19.0310 F   0  0  0  0  0  0  0  0  0  0  0  0
    7.8550    5.4540   20.2090 F   0  0  0  0  0 15  0  0  0  0  0  0
  1  2  1  0  0  0  0
  2  3  2  0  0  0  0
  4  3  1  0  0  0  0
  5  4  2  0  0  0  0
  6  5  1  0  0  0  0
  6  1  2  0  0  0  0
  7  8  1  1  0  0  0
  7  9  1  0  0  0  0
  7  1  1  0  0  0  0
 10  9  1  0  0  0  0
 11 10  2  0  0  0  0
 12 10  1  0  0  0  0
 12 15  1  0  0  0  0
 13 14  2  0  0  0  0
 13 11  1  0  0  0  0
 14 12  1  0  0  0  0
 16 17  1  0  0  0  0
 16  5  1  0  0  0  0
 17 19  2  0  0  0  0
 18 16  1  0  0  0  0
 20 17  1  0  0  0  0
 20 22  1  0  0  0  0
 21 23  1  0  0  0  0
 21 20  2  0  0  0  0
 23 24  1  0  0  0  0
 24 22  2  0  0  0  0
 26 27  1  0  0  0  0
M  END
>  <MODEL>
1

>  <REMARK>
 VINA RESULT:    -5.603      0.000      0.000
 INTER + INTRA:          -8.301
 INTER:                  -7.569
 INTRA:                  -0.732
 UNBOUND:                -0.732
 SMILES C[C@H](Sc1nncn1C)c1ccnc(NC(=O)c2csc(C(F)(F)F)n2)c1
 SMILES IDX 10 1 11 2 12 3 13 4 14 5 27 6 2 7 1 8 3 9 4 10 5 11 8 12
 SMILES IDX 6 13 7 14 9 15 15 16 16 17 17 19 18 20 19 21 26 22 20 23
 SMILES IDX 21 24 22 25 23 26 24 27 25 28
 H PARENT 15 18
 Flexibility Score: inf

>  <TORSDO>
F 6

$$$$
MR06
 OpenBabel07182316283D

 35 39  0  0  1  0  0  0  0  0999 V2000
    4.7360    5.5780   17.4300 C   0  0  0  0  0  0  0  0  0  0  0  0
    4.6830    4.4630   18.2370 C   0  0  0  0  0  3  0  0  0  0  0  0
    3.8380    4.4920   19.3240 C   0  0  0  0  0  0  0  0  0  0  0  0
    3.0840    5.5690   19.6000 N   0  0  0  0  0  0  0  0  0  0  0  0
    3.1020    6.6820   18.8410 C   0  0  0  0  0  0  0  0  0  0  0  0
    3.9550    6.6520   17.7430 C   0  0  0  0  0  3  0  0  0  0  0  0
    5.6510    5.5750   16.2360 C   0  0  2  0  0  3  0  0  0  0  0  0
    5.1860    4.6030   15.2010 C   0  0  0  0  0  1  0  0  0  0  0  0
    7.0750    5.3500   16.6470 C   0  0  0  0  0  2  0  0  0  0  0  0
    7.5460    6.5980   17.3240 C   0  0  0  0  0  0  0  0  0  0  0  0
    7.6120    7.8280   16.8280 N   0  0  0  0  0  0  0  0  0  0  0  0
    7.9840    6.6230   18.5880 N   0  0  0  0  0  0  0  0  0  0  0  0
    8.0840    8.6270   17.7560 N   0  0  0  0  0  0  0  0  0  0  0  0
    8.3180    7.8910   18.8530 C   0  0  0  0  0  3  0  0  0  0  0  0
    8.0700    5.4670   19.4860 C   0  0  0  0  0  1  0  0  0  0  0  0
    3.7880    3.3260   20.1600 N   0  0  0  0  0  0  0  0  0  0  0  0
    4.5640    3.0900   20.8130 H   0  0  0  0  0  0  0  0  0  0  0  0
    2.6500    2.4250   20.1280 C   0  0  0  0  0  3  0  0  0  0  0  0
    1.6630    2.6620   21.2470 C   0  0  0  0  0  2  0  0  0  0  0  0
    1.5810    2.7540   19.1420 C   0  0  0  0  0  2  0  0  0  0  0  0
    0.7560    3.3560   20.2560 C   0  0  0  0  0  2  0  0  0  0  0  0
    2.2940    7.8150   19.1500 N   0  0  0  0  0  0  0  0  0  0  0  0
    1.7130    8.0930   20.4460 C   0  0  0  0  0  2  0  0  0  0  0  0
    1.8900    8.8820   18.3040 C   0  0  0  0  0  0  0  0  0  0  0  0
    0.9670    9.3500   20.3090 C   0  0  0  0  0  0  0  0  0  0  0  0
    1.0620    9.8530   19.0060 C   0  0  0  0  0  0  0  0  0  0  0  0
    2.2010    8.9940   17.0940 O   0  0  0  0  0  0  0  0  0  0  0  0
    0.2350   10.0500   21.2400 C   0  0  0  0  0  0  0  0  0  0  0  0
    0.4270   11.0270   18.6800 C   0  0  0  0  0  3  0  0  0  0  0  0
   -0.3890   11.2190   20.8920 C   0  0  0  0  0  3  0  0  0  0  0  0
   -0.3040   11.7280   19.6050 C   0  0  0  0  0  3  0  0  0  0  0  0
    0.1240    9.5310   22.6260 C   0  0  0  0  0  0  0  0  0  0  0  0
   -0.5590   10.4610   23.4160 F   0  0  0  0  0  0  0  0  0  0  0  0
    1.3530    9.3530   23.1990 F   0  0  0  0  0  0  0  0  0  0  0  0
   -0.6390    8.3840   22.6160 F   0  0  0  0  0  0  0  0  0  0  0  0
  1  6  2  0  0  0  0
  1  2  1  0  0  0  0
  2  3  2  0  0  0  0
  3  4  1  0  0  0  0
  3 16  1  0  0  0  0
  5 22  1  0  0  0  0
  5  4  2  0  0  0  0
  6  5  1  0  0  0  0
  7  8  1  6  0  0  0
  7  9  1  0  0  0  0
  7  1  1  0  0  0  0
  9 10  1  0  0  0  0
 10 12  1  0  0  0  0
 11 10  2  0  0  0  0
 11 13  1  0  0  0  0
 12 14  1  0  0  0  0
 12 15  1  0  0  0  0
 13 14  2  0  0  0  0
 16 17  1  0  0  0  0
 18 16  1  0  0  0  0
 18 19  1  0  0  0  0
 20 18  1  0  0  0  0
 20 21  1  0  0  0  0
 21 19  1  0  0  0  0
 22 23  1  0  0  0  0
 24 26  1  0  0  0  0
 24 22  1  0  0  0  0
 25 23  1  0  0  0  0
 25 28  1  0  0  0  0
 26 25  2  0  0  0  0
 27 24  2  0  0  0  0
 28 32  1  0  0  0  0
 29 26  1  0  0  0  0
 29 31  2  0  0  0  0
 30 28  2  0  0  0  0
 31 30  1  0  0  0  0
 32 34  1  0  0  0  0
 32 33  1  0  0  0  0
 35 32  1  0  0  0  0
M  END
>  <MODEL>
1

>  <REMARK>
 VINA RESULT:    -7.044      0.000      0.000
 INTER + INTRA:         -10.715
 INTER:                  -9.926
 INTRA:                  -0.789
 UNBOUND:                -0.789
 SMILES C[C@H](Cc1nncn1C)c1cc(NC2CCC2)nc(N2Cc3c(cccc3C(F)(F)F)C2=O)c1
 SMILES IDX 10 1 11 2 12 3 18 4 19 5 34 6 2 7 1 8 3 9 4 10 5 11 8 12
 SMILES IDX 6 13 7 14 9 15 13 16 14 18 15 19 17 20 16 21 20 22 21 23
 SMILES IDX 32 24 22 25 23 26 33 27 27 28 24 29 26 30 25 31 28 32 29 33
 SMILES IDX 30 34 31 35
 H PARENT 13 17
 Flexibility Score: inf

>  <TORSDO>
F 7

$$$$
MR07
 OpenBabel07182316283D

 29 32  0  0  1  0  0  0  0  0999 V2000
    0.2070   12.3370   18.8910 C   0  0  0  0  0  0  0  0  0  0  0  0
   -1.1410   12.1200   18.6420 C   0  0  0  0  0  3  0  0  0  0  0  0
   -1.6000   10.9310   18.1760 C   0  0  0  0  0  3  0  0  0  0  0  0
   -0.6790    9.9070   17.9430 C   0  0  0  0  0  3  0  0  0  0  0  0
    0.6540   10.0550   18.1660 C   0  0  0  0  0  0  0  0  0  0  0  0
    1.0700   11.2940   18.6450 C   0  0  0  0  0  3  0  0  0  0  0  0
    0.6880   13.6380   19.4030 C   0  0  2  0  0  3  0  0  0  0  0  0
    2.1730   13.8130   19.3650 C   0  0  0  0  0  1  0  0  0  0  0  0
    0.1560   13.7910   21.1370 S   0  0  0  0  0  0  0  0  0  0  0  0
    0.2010   12.2070   21.9330 C   0  0  0  0  0  0  0  0  0  0  0  0
    1.2560   11.3880   21.9700 N   0  0  0  0  0  0  0  0  0  0  0  0
   -0.8020   11.6230   22.5950 N   0  0  0  0  0  0  0  0  0  0  0  0
    0.9540   10.3040   22.6340 N   0  0  0  0  0  0  0  0  0  0  0  0
   -0.3260   10.4350   23.0320 C   0  0  0  0  0  3  0  0  0  0  0  0
   -2.1580   12.1170   22.8330 C   0  0  0  0  0  1  0  0  0  0  0  0
    1.5910    9.0320   17.9580 N   0  0  0  0  0  0  0  0  0  0  0  0
    2.1470    8.1500   18.9000 C   0  0  0  0  0  0  0  0  0  0  0  0
    1.9510    8.8720   16.9530 H   0  0  0  0  0  0  0  0  0  0  0  0
    1.8050    8.2460   20.0970 O   0  0  0  0  0  0  0  0  0  0  0  0
    3.1300    7.1090   18.5060 C   0  0  0  0  0  0  0  0  0  0  0  0
    3.7750    7.1740   17.2940 C   0  0  0  0  0  3  0  0  0  0  0  0
    3.4150    6.0840   19.3230 N   0  0  0  0  0  0  0  0  0  0  0  0
    4.6980    6.2390   16.8820 C   0  0  0  0  0  0  0  0  0  0  0  0
    4.3180    5.1500   18.9460 C   0  0  0  0  0  3  0  0  0  0  0  0
    5.3490    6.2870   15.6810 C   0  0  0  0  0  3  0  0  0  0  0  0
    4.9730    5.2020   17.7350 C   0  0  0  0  0  0  0  0  0  0  0  0
    6.2720    5.3400   15.2830 C   0  0  0  0  0  3  0  0  0  0  0  0
    5.9030    4.2330   17.3550 C   0  0  0  0  0  3  0  0  0  0  0  0
    6.5580    4.2830   16.1420 C   0  0  0  0  0  3  0  0  0  0  0  0
  1  7  1  0  0  0  0
  2  1  2  0  0  0  0
  3  2  1  0  0  0  0
  4  5  1  0  0  0  0
  4  3  2  0  0  0  0
  5  6  2  0  0  0  0
  6  1  1  0  0  0  0
  7  8  1  1  0  0  0
  7  9  1  0  0  0  0
  9 10  1  0  0  0  0
 10 11  2  0  0  0  0
 10 12  1  0  0  0  0
 11 13  1  0  0  0  0
 12 15  1  0  0  0  0
 12 14  1  0  0  0  0
 13 14  2  0  0  0  0
 16  5  1  0  0  0  0
 16 17  1  0  0  0  0
 17 19  2  0  0  0  0
 18 16  1  0  0  0  0
 20 17  1  0  0  0  0
 20 22  1  0  0  0  0
 21 20  2  0  0  0  0
 23 21  1  0  0  0  0
 23 26  1  0  0  0  0
 24 22  2  0  0  0  0
 25 23  2  0  0  0  0
 26 24  1  0  0  0  0
 27 25  1  0  0  0  0
 27 29  2  0  0  0  0
 28 26  2  0  0  0  0
 29 28  1  0  0  0  0
M  END
>  <MODEL>
1

>  <REMARK>
 VINA RESULT:    -5.847      0.000      0.000
 INTER + INTRA:          -8.491
 INTER:                  -7.556
 INTRA:                  -0.935
 UNBOUND:                -0.935
 SMILES C[C@H](Sc1nncn1C)c1cccc(NC(=O)c2cc3ccccc3cn2)c1
 SMILES IDX 10 1 11 2 12 3 13 4 14 5 28 6 2 7 1 8 3 9 4 10 5 11 8 12
 SMILES IDX 6 13 7 14 9 15 15 16 16 17 17 19 18 20 19 21 27 22 20 23
 SMILES IDX 26 24 21 25 25 26 22 27 24 28 23 29
 H PARENT 15 18
 Flexibility Score: inf

>  <TORSDO>
F 5

$$$$
MR08
 OpenBabel07182316283D

 38 44  0  0  1  0  0  0  0  0999 V2000
   -0.5570   11.0620   20.3240 C   0  0  0  0  0  0  0  0  0  0  0  0
   -0.7810   11.2770   21.6970 C   0  0  0  0  0  3  0  0  0  0  0  0
   -0.2030   10.4230   22.6100 C   0  0  0  0  0  3  0  0  0  0  0  0
    0.5750    9.3910   22.1290 C   0  0  0  0  0  3  0  0  0  0  0  0
    0.7990    9.1740   20.7810 C   0  0  0  0  0  0  0  0  0  0  0  0
    0.2270   10.0170   19.8810 C   0  0  0  0  0  3  0  0  0  0  0  0
   -1.1880   12.0320   19.3870 C   0  0  1  0  0  0  0  0  0  0  0  0
   -0.8650   13.4750   19.8000 C   0  0  2  0  0  3  0  0  0  0  0  0
   -0.3110   12.4790   18.2680 C   0  0  1  0  0  3  0  0  0  0  0  0
    0.4010   13.2920   19.1650 O   0  0  0  0  0  0  0  0  0  0  0  0
   -2.5750   11.7650   18.9500 C   0  0  0  0  0  2  0  0  0  0  0  0
   -2.7780   11.1860   17.6240 C   0  0  0  0  0  0  0  0  0  0  0  0
   -4.9810   12.1280   16.9690 C   0  0  0  0  0  1  0  0  0  0  0  0
   -3.7930   11.3390   16.7980 N   0  0  0  0  0  0  0  0  0  0  0  0
   -3.5490   10.6170   15.6950 C   0  0  0  0  0  3  0  0  0  0  0  0
   -2.3660   10.0100   15.8430 N   0  0  0  0  0  0  0  0  0  0  0  0
   -1.8900   10.3560   17.0210 N   0  0  0  0  0  0  0  0  0  0  0  0
    1.6600    8.0970   20.3690 N   0  0  0  0  0  0  0  0  0  0  0  0
    1.9170    6.8360   20.9600 C   0  0  0  0  0  2  0  0  0  0  0  0
    2.4160    8.1250   19.1330 C   0  0  0  0  0  0  0  0  0  0  0  0
    2.3720    5.9640   19.8690 C   0  0  0  0  0  0  0  0  0  0  0  0
    2.8280    6.7540   18.8530 C   0  0  0  0  0  0  0  0  0  0  0  0
    2.6860    9.1000   18.4250 O   0  0  0  0  0  0  0  0  0  0  0  0
    2.4760    4.5790   19.8220 C   0  0  0  0  0  0  0  0  0  0  0  0
    3.4260    6.1830   17.7290 C   0  0  0  0  0  3  0  0  0  0  0  0
    3.0650    4.0280   18.7080 C   0  0  0  0  0  3  0  0  0  0  0  0
    3.5460    4.8110   17.6520 C   0  0  0  0  0  0  0  0  0  0  0  0
    1.9540    3.7400   20.9260 C   0  0  0  0  0  0  0  0  0  0  0  0
    0.5520    3.7080   20.8650 F   0  0  0  0  0  0  0  0  0  0  0  0
    2.4080    2.4310   20.6790 F   0  0  0  0  0  0  0  0  0  0  0  0
    2.4030    4.0950   22.1680 F   0  0  0  0  0  0  0  0  0  0  0  0
    4.1160    4.1300   16.4650 C   0  0  0  0  0  2  0  0  0  0  0  0
    5.4960    3.9440   16.5830 N   0  0  0  0  0  0  0  0  0  0  0  0
    6.3170    3.9070   15.4440 C   0  0  0  0  0  2  0  0  0  0  0  0
    6.1270    4.2290   17.8220 C   0  0  0  0  0  2  0  0  0  0  0  0
    7.1350    5.1800   15.2620 C   0  0  0  0  0  2  0  0  0  0  0  0
    7.3420    5.1120   17.6960 C   0  0  0  0  0  2  0  0  0  0  0  0
    7.1110    6.0320   16.5150 C   0  0  0  0  0  2  0  0  0  0  0  0
  1  2  1  0  0  0  0
  2  3  2  0  0  0  0
  4  3  1  0  0  0  0
  5  4  2  0  0  0  0
  6  1  2  0  0  0  0
  6  5  1  0  0  0  0
  7 11  1  6  0  0  0
  7  8  1  0  0  0  0
  7  1  1  0  0  0  0
  8 10  1  1  0  0  0
  9 10  1  1  0  0  0
  9  7  1  0  0  0  0
  9  8  1  0  0  0  0
 12 11  1  0  0  0  0
 14 13  1  0  0  0  0
 14 12  1  0  0  0  0
 15 16  2  0  0  0  0
 15 14  1  0  0  0  0
 16 17  1  0  0  0  0
 17 12  2  0  0  0  0
 18  5  1  0  0  0  0
 18 19  1  0  0  0  0
 20 18  1  0  0  0  0
 21 19  1  0  0  0  0
 22 20  1  0  0  0  0
 22 21  2  0  0  0  0
 23 20  2  0  0  0  0
 24 21  1  0  0  0  0
 24 28  1  0  0  0  0
 25 22  1  0  0  0  0
 26 24  2  0  0  0  0
 27 25  2  0  0  0  0
 27 26  1  0  0  0  0
 28 31  1  0  0  0  0
 29 28  1  0  0  0  0
 30 28  1  0  0  0  0
 32 33  1  0  0  0  0
 32 27  1  0  0  0  0
 33 35  1  0  0  0  0
 34 33  1  0  0  0  0
 36 34  1  0  0  0  0
 36 38  1  0  0  0  0
 37 35  1  0  0  0  0
 38 37  1  0  0  0  0
M  END
>  <MODEL>
1

>  <REMARK>
 VINA RESULT:    -6.382      0.000      0.000
 INTER + INTRA:          -9.709
 INTER:                  -8.993
 INTRA:                  -0.716
 UNBOUND:                -0.716
 SMILES Cn1cnnc1CC1(c2cccc(N3Cc4c(cc(CN5CCCCC5)cc4C(F)(F)F)C3=O)c2)COC1
 SMILES IDX 9 1 10 2 11 3 12 4 13 5 35 6 8 7 36 8 38 9 37 10 7 11 6 12
 SMILES IDX 1 13 2 14 3 15 4 16 5 17 14 18 15 19 33 20 16 21 17 22 34 23
 SMILES IDX 28 24 18 25 27 26 19 27 29 28 30 29 31 30 32 31 20 32 21 33
 SMILES IDX 22 34 26 35 23 36 25 37 24 38
 H PARENT
 Flexibility Score: inf

>  <TORSDO>
F 7

$$$$
MR09
 OpenBabel07182316283D

 47 52  0  0  1  0  0  0  0  0999 V2000
   -1.4100   12.3420   20.2290 C   0  0  0  0  0  0  0  0  0  0  0  0
   -0.5930   13.4740   20.4880 C   0  0  0  0  0  3  0  0  0  0  0  0
    0.7610   13.3870   20.3780 C   0  0  0  0  0  0  0  0  0  0  0  0
    1.3310   12.2020   20.0150 N   0  0  0  0  0  0  0  0  0  0  0  0
    0.6220   11.1110   19.7600 C   0  0  0  0  0  0  0  0  0  0  0  0
   -0.7530   11.1890   19.8690 C   0  0  0  0  0  3  0  0  0  0  0  0
   -2.8520   12.5120   20.3390 C   0  0  2  0  0  3  0  0  0  0  0  0
   -3.6120   12.3150   19.0350 C   0  0  0  0  0  1  0  0  0  0  0  0
   -3.3820   13.6070   21.1750 C   0  0  0  0  0  2  0  0  0  0  0  0
   -4.0010   13.1080   22.4230 C   0  0  0  0  0  0  0  0  0  0  0  0
   -5.0760   12.3580   22.5790 N   0  0  0  0  0  0  0  0  0  0  0  0
   -3.4920   13.4170   23.6420 N   0  0  0  0  0  0  0  0  0  0  0  0
   -5.2660   12.1790   23.8670 N   0  0  0  0  0  0  0  0  0  0  0  0
   -4.3130   12.8140   24.5480 C   0  0  0  0  0  3  0  0  0  0  0  0
   -2.3480   14.2120   23.9530 C   0  0  0  0  0  1  0  0  0  0  0  0
    1.6120   14.4950   20.6170 N   0  0  0  0  0  0  0  0  0  0  0  0
    2.6880   14.5690   21.5190 C   0  0  0  0  0  0  0  0  0  0  0  0
    1.4140   15.3740   20.0480 H   0  0  0  0  0  0  0  0  0  0  0  0
    2.9900   13.5940   22.2230 O   0  0  0  0  0  0  0  0  0  0  0  0
    3.4680   15.7790   21.6530 N   0  0  0  0  0  0  0  0  0  0  0  0
    3.2010   16.5890   21.0490 H   0  0  0  0  0  0  0  0  0  0  0  0
    4.5600   15.8030   22.5990 C   0  0  0  0  0  3  0  0  0  0  0  0
    5.3500   14.5320   22.3670 C   0  0  0  0  0  2  0  0  0  0  0  0
    3.9660   15.9030   23.9750 C   0  0  0  0  0  2  0  0  0  0  0  0
    6.1680   14.0890   23.5300 C   0  0  0  0  0  2  0  0  0  0  0  0
    4.8350   15.3950   25.0740 C   0  0  0  0  0  2  0  0  0  0  0  0
    6.2540   15.1190   24.6240 C   0  0  0  0  0  2  0  0  0  0  0  0
    1.2750    9.8790   19.3740 N   0  0  0  0  0  0  0  0  0  0  0  0
    1.2160    8.6500   20.1280 C   0  0  0  0  0  2  0  0  0  0  0  0
    2.0780    9.6320   18.2330 C   0  0  0  0  0  0  0  0  0  0  0  0
    2.0460    7.6770   19.3880 C   0  0  0  0  0  0  0  0  0  0  0  0
    2.5520    8.2480   18.2590 C   0  0  0  0  0  0  0  0  0  0  0  0
    2.3440   10.4850   17.3270 O   0  0  0  0  0  0  0  0  0  0  0  0
    2.3760    6.3570   19.6300 C   0  0  0  0  0  0  0  0  0  0  0  0
    3.3550    7.5330   17.4030 C   0  0  0  0  0  3  0  0  0  0  0  0
    3.1820    5.6420   18.7700 C   0  0  0  0  0  3  0  0  0  0  0  0
    3.7010    6.2090   17.6240 C   0  0  0  0  0  0  0  0  0  0  0  0
    1.8380    5.7010   20.8540 C   0  0  0  0  0  0  0  0  0  0  0  0
    0.8570    4.8100   20.4060 F   0  0  0  0  0  0  0  0  0  0  0  0
    2.7990    4.9320   21.4900 F   0  0  0  0  0  0  0  0  0  0  0  0
    1.2680    6.6100   21.7080 F   0  0  0  0  0  0  0  0  0  0  0  0
    4.5730    5.4440   16.6850 C   0  0  0  0  0  3  0  0  0  0  0  0
    5.5680    6.3410   15.9960 C   0  0  0  0  0  2  0  0  0  0  0  0
    5.1590    4.2070   17.2560 C   0  0  0  0  0  2  0  0  0  0  0  0
    6.8340    6.5430   16.7410 C   0  0  0  0  0  2  0  0  0  0  0  0
    6.4890    4.3240   17.8980 C   0  0  0  0  0  2  0  0  0  0  0  0
    7.4380    5.2970   17.2940 C   0  0  0  0  0  2  0  0  0  0  0  0
  1  7  1  0  0  0  0
  1  2  1  0  0  0  0
  3  2  2  0  0  0  0
  3 16  1  0  0  0  0
  4  3  1  0  0  0  0
  5  6  1  0  0  0  0
  5  4  2  0  0  0  0
  6  1  2  0  0  0  0
  7  8  1  6  0  0  0
  7  9  1  0  0  0  0
  9 10  1  0  0  0  0
 10 11  2  0  0  0  0
 10 12  1  0  0  0  0
 11 13  1  0  0  0  0
 12 15  1  0  0  0  0
 12 14  1  0  0  0  0
 13 14  2  0  0  0  0
 16 17  1  0  0  0  0
 17 20  1  0  0  0  0
 17 19  2  0  0  0  0
 18 16  1  0  0  0  0
 20 22  1  0  0  0  0
 21 20  1  0  0  0  0
 22 24  1  0  0  0  0
 23 22  1  0  0  0  0
 23 25  1  0  0  0  0
 24 26  1  0  0  0  0
 25 27  1  0  0  0  0
 27 26  1  0  0  0  0
 28  5  1  0  0  0  0
 28 29  1  0  0  0  0
 30 32  1  0  0  0  0
 30 28  1  0  0  0  0
 31 34  1  0  0  0  0
 31 29  1  0  0  0  0
 32 31  2  0  0  0  0
 33 30  2  0  0  0  0
 34 38  1  0  0  0  0
 35 37  2  0  0  0  0
 35 32  1  0  0  0  0
 36 34  2  0  0  0  0
 37 36  1  0  0  0  0
 38 40  1  0  0  0  0
 38 41  1  0  0  0  0
 39 38  1  0  0  0  0
 42 44  1  0  0  0  0
 42 37  1  0  0  0  0
 43 42  1  0  0  0  0
 43 45  1  0  0  0  0
 44 46  1  0  0  0  0
 45 47  1  0  0  0  0
 47 46  1  0  0  0  0
M  END
>  <MODEL>
1

>  <REMARK>
 VINA RESULT:    -5.886      0.000      0.000
 INTER + INTRA:          -9.298
 INTER:                  -8.639
 INTRA:                  -0.659
 UNBOUND:                -0.659
 SMILES C[C@H](Cc1nncn1C)c1cc(NC(=O)NC2CCCCC2)nc(N2Cc3c(cc(C4CCCCC4)cc3C(F)(F)F)C2=O)c1
 SMILES IDX 10 1 11 2 12 3 23 4 24 5 45 6 2 7 1 8 3 9 4 10 5 11 8 12
 SMILES IDX 6 13 7 14 9 15 13 16 14 17 15 19 16 20 17 22 18 23 22 24
 SMILES IDX 19 25 21 26 20 27 25 28 26 29 43 30 27 31 28 32 44 33 38 34
 SMILES IDX 29 35 37 36 30 37 39 38 40 39 41 40 42 41 31 42 32 43 36 44
 SMILES IDX 33 45 35 46 34 47
 H PARENT 13 18 16 21
 Flexibility Score: inf

>  <TORSDO>
F 8

$$$$
MR10
 OpenBabel07182316283D

 32 36  0  0  1  0  0  0  0  0999 V2000
    4.7070    5.5650   16.7540 C   0  0  0  0  0  0  0  0  0  0  0  0
    4.2140    4.4400   17.3820 C   0  0  0  0  0  3  0  0  0  0  0  0
    3.1190    4.5170   18.2210 C   0  0  0  0  0  3  0  0  0  0  0  0
    2.5310    5.7440   18.4160 C   0  0  0  0  0  3  0  0  0  0  0  0
    2.9850    6.8980   17.8120 C   0  0  0  0  0  0  0  0  0  0  0  0
    4.0820    6.7840   16.9810 C   0  0  0  0  0  3  0  0  0  0  0  0
    5.8840    5.4960   15.8500 C   0  0  2  0  0  3  0  0  0  0  0  0
    5.6330    4.4920   14.7750 C   0  0  0  0  0  1  0  0  0  0  0  0
    7.1570    5.2100   16.6230 C   0  0  0  0  0  2  0  0  0  0  0  0
    7.5950    6.4340   17.3400 C   0  0  0  0  0  0  0  0  0  0  0  0
    7.6850    7.6630   16.8090 N   0  0  0  0  0  0  0  0  0  0  0  0
    7.9730    6.5300   18.6270 N   0  0  0  0  0  0  0  0  0  0  0  0
    8.1090    8.4830   17.7560 N   0  0  0  0  0  0  0  0  0  0  0  0
    8.2980    7.8020   18.9040 C   0  0  0  0  0  3  0  0  0  0  0  0
    8.0420    5.4500   19.6170 C   0  0  0  0  0  1  0  0  0  0  0  0
    2.3180    8.1750   18.0590 C   0  0  0  0  0  0  0  0  0  0  0  0
    1.8060    8.5530   19.2870 C   0  0  0  0  0  0  0  0  0  0  0  0
    2.0700    9.1800   17.2320 N   0  0  0  0  0  0  0  0  0  0  0  0
    1.2600    9.8230   19.1050 C   0  0  0  0  0  0  0  0  0  0  0  0
    1.7860    7.9140   20.4670 N   0  0  0  0  0  0  0  0  0  0  0  0
    1.4450   10.1710   17.8200 N   0  0  0  0  0  0  0  0  0  0  0  0
    0.6890   10.4130   20.1890 C   0  0  0  0  0  0  0  0  0  0  0  0
    1.2260    8.4890   21.5360 C   0  0  0  0  0  3  0  0  0  0  0  0
    1.1200   11.0900   17.4250 H   0  0  0  0  0  0  0  0  0  0  0  0
    0.6740    9.7390   21.4060 C   0  0  0  0  0  3  0  0  0  0  0  0
    0.1120   11.7120   20.0610 N   0  0  0  0  0  0  0  0  0  0  0  0
   -1.2400   11.8350   19.6040 C   0  0  0  0  0  2  0  0  0  0  0  0
    0.9200   12.8350   20.3970 C   0  0  0  0  0  2  0  0  0  0  0  0
   -1.9160   12.9010   20.4390 C   0  0  0  0  0  2  0  0  0  0  0  0
    0.2180   14.1220   20.6230 C   0  0  0  0  0  2  0  0  0  0  0  0
   -1.1770   14.2050   20.1170 C   0  0  2  0  0  3  0  0  0  0  0  0
   -1.8000   15.2850   20.7170 F   0  0  0  0  0  0  0  0  0  0  0  0
  1  6  2  0  0  0  0
  1  2  1  0  0  0  0
  2  3  2  0  0  0  0
  3  4  1  0  0  0  0
  5 16  1  0  0  0  0
  5  4  2  0  0  0  0
  6  5  1  0  0  0  0
  7  8  1  6  0  0  0
  7  9  1  0  0  0  0
  7  1  1  0  0  0  0
  9 10  1  0  0  0  0
 10 12  1  0  0  0  0
 11 10  2  0  0  0  0
 11 13  1  0  0  0  0
 12 14  1  0  0  0  0
 12 15  1  0  0  0  0
 13 14  2  0  0  0  0
 16 17  1  0  0  0  0
 17 20  1  0  0  0  0
 18 21  1  0  0  0  0
 18 16  2  0  0  0  0
 19 17  2  0  0  0  0
 19 22  1  0  0  0  0
 20 23  2  0  0  0  0
 21 19  1  0  0  0  0
 22 25  2  0  0  0  0
 24 21  1  0  0  0  0
 25 23  1  0  0  0  0
 26 22  1  0  0  0  0
 26 28  1  0  0  0  0
 27 26  1  0  0  0  0
 27 29  1  0  0  0  0
 28 30  1  0  0  0  0
 31 29  1  0  0  0  0
 31 30  1  0  0  0  0
 31 32  1  1  0  0  0
M  END
>  <MODEL>
1

>  <REMARK>
 VINA RESULT:    -5.811      0.000      0.000
 INTER + INTRA:          -8.671
 INTER:                  -7.510
 INTRA:                  -1.162
 UNBOUND:                -1.162
 SMILES C[C@H](Cc1nncn1C)c1cccc(-c2n[nH]c3c(N4CCC(F)CC4)ccnc23)c1
 SMILES IDX 10 1 11 2 12 3 13 4 14 5 31 6 2 7 1 8 3 9 4 10 5 11 8 12
 SMILES IDX 6 13 7 14 9 15 15 16 30 17 16 18 18 19 29 20 17 21 19 22
 SMILES IDX 28 23 27 25 20 26 21 27 26 28 22 29 25 30 23 31 24 32
 H PARENT 17 24
 Flexibility Score: inf

>  <TORSDO>
F 5

$$$$
JZ01
 OpenBabel07182316283D

 28 31  0  0  0  0  0  0  0  0999 V2000
    2.3450    5.2950   20.6490 C   0  0  0  0  0  0  0  0  0  0  0  0
    2.0270    4.0070   21.0090 C   0  0  0  0  0  3  0  0  0  0  0  0
    2.6560    2.9080   20.4710 C   0  0  0  0  0  3  0  0  0  0  0  0
    3.6480    3.1400   19.5290 C   0  0  0  0  0  3  0  0  0  0  0  0
    3.9780    4.4240   19.1590 C   0  0  0  0  0  0  0  0  0  0  0  0
    3.3100    5.4690   19.7370 N   0  0  0  0  0  0  0  0  0  0  0  0
    1.6470    6.4170   21.2370 N   0  0  0  0  0  0  0  0  0  0  0  0
    1.6440    7.6790   20.6240 C   0  0  0  0  0  0  0  0  0  0  0  0
    2.3140    7.7830   19.5290 O   0  0  0  0  0  0  0  0  0  0  0  0
    1.1340    6.2630   22.1200 H   0  0  0  0  0  0  0  0  0  0  0  0
    0.9580    8.8640   21.1190 C   0  0  0  0  0  0  0  0  0  0  0  0
   -1.0560   12.2080   22.7800 C   0  0  0  0  0  1  0  0  0  0  0  0
   -0.3610   11.0560   22.1790 C   0  0  0  0  0  0  0  0  0  0  0  0
   -0.0050    9.9990   22.9910 C   0  0  0  0  0  3  0  0  0  0  0  0
   -0.0480   10.9760   20.8830 N   0  0  0  0  0  0  0  0  0  0  0  0
    0.6380    8.9280   22.4760 C   0  0  0  0  0  3  0  0  0  0  0  0
    0.5970    9.9200   20.3270 C   0  0  0  0  0  0  0  0  0  0  0  0
   -0.3110   11.7740   20.2440 H   0  0  0  0  0  0  0  0  0  0  0  0
    0.8440    9.9540   19.0840 O   0  0  0  0  0  0  0  0  0  0  0  0
    5.0080    4.7000   18.1600 C   0  0  0  0  0  0  0  0  0  0  0  0
    6.1000    5.4950   18.5070 C   0  0  0  0  0  3  0  0  0  0  0  0
    4.9930    4.2340   16.8770 C   0  0  0  0  0  3  0  0  0  0  0  0
    7.1060    5.7950   17.6070 C   0  0  0  0  0  3  0  0  0  0  0  0
    6.0110    4.5360   15.9640 C   0  0  0  0  0  0  0  0  0  0  0  0
    7.0640    5.3140   16.3300 C   0  0  0  0  0  0  0  0  0  0  0  0
    6.2330    4.1540   14.5310 C   0  0  0  0  0  2  0  0  0  0  0  0
    7.9510    5.4760   15.2510 O   0  0  0  0  0  0  0  0  0  0  0  0
    7.2720    5.1260   14.0510 C   0  0  0  0  0  2  0  0  0  0  0  0
  1  2  1  0  0  0  0
  1  7  1  0  0  0  0
  3  2  2  0  0  0  0
  4  3  1  0  0  0  0
  5  4  2  0  0  0  0
  5  6  1  0  0  0  0
  6  1  2  0  0  0  0
  7 10  1  0  0  0  0
  8 11  1  0  0  0  0
  8  7  1  0  0  0  0
  9  8  2  0  0  0  0
 11 16  2  0  0  0  0
 13 12  1  0  0  0  0
 13 14  2  0  0  0  0
 15 13  1  0  0  0  0
 16 14  1  0  0  0  0
 17 15  1  0  0  0  0
 17 11  1  0  0  0  0
 18 15  1  0  0  0  0
 19 17  2  0  0  0  0
 20 21  1  0  0  0  0
 20  5  1  0  0  0  0
 22 20  2  0  0  0  0
 23 21  2  0  0  0  0
 24 25  2  0  0  0  0
 24 22  1  0  0  0  0
 25 23  1  0  0  0  0
 26 24  1  0  0  0  0
 27 25  1  0  0  0  0
 28 26  1  0  0  0  0
 28 27  1  0  0  0  0
M  END
>  <MODEL>
1

>  <REMARK>
 VINA RESULT:    -7.220      0.000      0.000
 INTER + INTRA:          -8.586
 INTER:                  -8.487
 INTRA:                  -0.099
 UNBOUND:                -0.099
 SMILES Cc1ccc(C(=O)Nc2cccc(-c3ccc4c(c3)CCO4)n2)c(=O)[nH]1
 SMILES IDX 9 1 10 2 11 3 12 4 13 5 23 6 8 7 6 8 7 9 5 11 1 12 2 13 3 14
 SMILES IDX 26 15 4 16 24 17 25 19 14 20 15 21 19 22 16 23 18 24 17 25
 SMILES IDX 20 26 22 27 21 28
 H PARENT 8 10 26 18
 Flexibility Score: inf

>  <TORSDO>
F 3

$$$$
JZ02
 OpenBabel07182316283D

 31 34  0  0  1  0  0  0  0  0999 V2000
    7.5260    7.4970   17.5540 C   0  0  0  0  0  0  0  0  0  0  0  0
    8.1780    7.2210   16.4800 O   0  0  0  0  0  0  0  0  0  0  0  0
    7.8340    8.7020   18.1980 N   0  0  0  0  0  0  0  0  0  0  0  0
    7.3170    8.9660   19.0490 H   0  0  0  0  0  0  0  0  0  0  0  0
    6.5350    6.5630   18.0130 C   0  0  1  0  0  3  0  0  0  0  0  0
    3.2160    3.6600   19.1180 C   0  0  0  0  0  0  0  0  0  0  0  0
    2.6440    3.3460   17.9120 C   0  0  0  0  0  3  0  0  0  0  0  0
    4.4940    4.2430   19.0880 C   0  0  0  0  0  3  0  0  0  0  0  0
    3.3190    3.6030   16.7380 C   0  0  0  0  0  3  0  0  0  0  0  0
    5.1400    4.4880   17.9170 C   0  0  0  0  0  0  0  0  0  0  0  0
    4.5690    4.1750   16.7130 C   0  0  0  0  0  0  0  0  0  0  0  0
    6.4950    5.1060   17.8810 C   0  0  1  0  0  0  0  0  0  0  0  0
    5.2770    4.4460   15.5290 O   0  0  0  0  0  0  0  0  0  0  0  0
    7.2860    4.2950   16.9090 C   0  0  0  0  0  2  0  0  0  0  0  0
    6.9970    5.6330   19.1430 C   0  0  0  0  0  2  0  0  0  0  0  0
    6.6830    4.3830   15.5160 C   0  0  0  0  0  2  0  0  0  0  0  0
    2.5220    3.3980   20.3970 C   0  0  0  0  0  3  0  0  0  0  0  0
    2.1460    4.6600   21.1150 C   0  0  0  0  0  1  0  0  0  0  0  0
    1.2490    2.6400   20.0920 C   0  0  0  0  0  1  0  0  0  0  0  0
    8.8540    9.6090   17.6890 C   0  0  0  0  0  2  0  0  0  0  0  0
    9.0330   10.7830   18.5550 C   0  0  0  0  0  0  0  0  0  0  0  0
    9.4400   10.5900   19.8570 C   0  0  0  0  0  3  0  0  0  0  0  0
    8.7850   12.0350   18.0290 C   0  0  0  0  0  3  0  0  0  0  0  0
    9.6140   11.6790   20.6910 C   0  0  0  0  0  3  0  0  0  0  0  0
    8.9630   13.1260   18.8760 C   0  0  0  0  0  0  0  0  0  0  0  0
    9.3680   12.9410   20.1760 C   0  0  0  0  0  3  0  0  0  0  0  0
    8.7170   14.4650   18.3780 C   0  0  0  0  0  0  0  0  0  0  0  0
    7.8850   14.6920   17.2280 N   0  0  0  0  0  0  0  0  0  0  0  0
    9.2340   15.4530   18.9510 O   0  0  0  0  0  0  0  0  0  0  0  0
    8.2670   14.6720   16.2670 H   0  0  0  0  0  0  0  0  0  0  0  0
    6.8730   14.8760   17.4620 H   0  0  0  0  0  0  0  0  0  0  0  0
  1  3  1  0  0  0  0
  2  1  2  0  0  0  0
  3  4  1  0  0  0  0
  5  1  1  6  0  0  0
  5 15  1  0  0  0  0
  6 17  1  0  0  0  0
  7  6  2  0  0  0  0
  8  6  1  0  0  0  0
  9  7  1  0  0  0  0
 10  8  2  0  0  0  0
 11  9  2  0  0  0  0
 11 10  1  0  0  0  0
 12 14  1  6  0  0  0
 12 10  1  0  0  0  0
 12  5  1  0  0  0  0
 12 15  1  0  0  0  0
 13 11  1  0  0  0  0
 16 13  1  0  0  0  0
 16 14  1  0  0  0  0
 17 18  1  0  0  0  0
 19 17  1  0  0  0  0
 20  3  1  0  0  0  0
 20 21  1  0  0  0  0
 21 22  1  0  0  0  0
 22 24  2  0  0  0  0
 23 21  2  0  0  0  0
 23 25  1  0  0  0  0
 25 26  2  0  0  0  0
 26 24  1  0  0  0  0
 27 25  1  0  0  0  0
 27 29  2  0  0  0  0
 28 31  1  0  0  0  0
 28 27  1  0  0  0  0
 30 28  1  0  0  0  0
M  END
>  <MODEL>
1

>  <REMARK>
 VINA RESULT:    -5.993      0.000      0.000
 INTER + INTRA:          -8.137
 INTER:                  -7.744
 INTRA:                  -0.393
 UNBOUND:                -0.393
 SMILES CC(C)c1ccc2c(c1)[C@]1(CCO2)C[C@H]1C(=O)NCc1cccc(C(N)=O)c1
 SMILES IDX 16 1 17 2 18 3 15 5 4 6 5 7 9 8 6 9 8 10 7 11 10 12 13 13
 SMILES IDX 11 14 14 15 12 16 2 17 1 18 3 19 19 20 20 21 21 22 28 23
 SMILES IDX 22 24 24 25 23 26 25 27 26 28 27 29
 H PARENT 18 4 26 30 26 31
 Flexibility Score: inf

>  <TORSDO>
F 5

$$$$
JZ03
 OpenBabel07182316283D

 38 40  0  0  0  0  0  0  0  0999 V2000
    1.1120   10.3810   18.7960 C   0  0  0  0  0  0  0  0  0  0  0  0
    1.8380   11.5310   18.7120 C   0  0  0  0  0  3  0  0  0  0  0  0
    1.2250   12.7140   18.3920 C   0  0  0  0  0  3  0  0  0  0  0  0
   -0.1630   12.7450   18.1470 C   0  0  0  0  0  3  0  0  0  0  0  0
   -0.9280   11.6330   18.2160 C   0  0  0  0  0  0  0  0  0  0  0  0
   -0.2680   10.4450   18.5460 C   0  0  0  0  0  3  0  0  0  0  0  0
    1.6380    9.0980   19.1000 N   0  0  0  0  0  0  0  0  0  0  0  0
    2.4800    8.5760   17.0310 O   0  0  0  0  0  0  0  0  0  0  0  0
    2.3090    8.2240   18.2260 C   0  0  0  0  0  0  0  0  0  0  0  0
    1.5170    8.7580   20.1030 H   0  0  0  0  0  0  0  0  0  0  0  0
    2.8180    6.9070   18.6630 C   0  0  0  0  0  0  0  0  0  0  0  0
    2.0640    5.9670   19.3070 C   0  0  0  0  0  3  0  0  0  0  0  0
    4.1410    6.5930   18.4090 C   0  0  0  0  0  3  0  0  0  0  0  0
    2.5690    4.7440   19.7040 C   0  0  0  0  0  3  0  0  0  0  0  0
    4.6900    5.3870   18.7850 C   0  0  0  0  0  0  0  0  0  0  0  0
    3.8930    4.4680   19.4330 C   0  0  0  0  0  3  0  0  0  0  0  0
    6.1340    5.0690   18.4950 C   0  0  0  0  0  2  0  0  0  0  0  0
    6.2760    4.8600   17.0830 N   0  0  0  0  0  0  0  0  0  0  0  0
    7.1600    5.5810   16.2430 C   0  0  0  0  0  0  0  0  0  0  0  0
    5.5940    3.9340   16.2770 C   0  0  0  0  0  0  0  0  0  0  0  0
    7.9410    6.5000   16.6030 O   0  0  0  0  0  0  0  0  0  0  0  0
    7.0050    5.0670   14.8660 C   0  0  0  0  0  0  0  0  0  0  0  0
    6.0550    4.0690   14.8950 C   0  0  0  0  0  0  0  0  0  0  0  0
    4.7200    3.1080   16.6680 O   0  0  0  0  0  0  0  0  0  0  0  0
    7.5980    5.3930   13.6870 C   0  0  0  0  0  3  0  0  0  0  0  0
    5.7120    3.4130   13.7410 C   0  0  0  0  0  3  0  0  0  0  0  0
    7.2460    4.7280   12.5340 C   0  0  0  0  0  3  0  0  0  0  0  0
    6.3020    3.7330   12.5500 C   0  0  0  0  0  3  0  0  0  0  0  0
   -2.3470   11.6010   17.9170 C   0  0  0  0  0  0  0  0  0  0  0  0
   -2.8040   11.1450   16.6820 N   0  0  0  0  0  0  0  0  0  0  0  0
   -3.4370   11.9710   18.5980 N   0  0  0  0  0  0  0  0  0  0  0  0
   -4.0780   11.2530   16.6790 N   0  0  0  0  0  0  0  0  0  0  0  0
   -4.5190   11.7700   17.8700 C   0  0  0  0  0  0  0  0  0  0  0  0
   -3.3730   12.5430   19.8940 C   0  0  0  0  0  2  0  0  0  0  0  0
   -4.5580   13.3610   20.3340 C   0  0  0  0  0  1  0  0  0  0  0  0
   -5.7210   12.4330   20.4690 *   0  0  0  0  0  0  0  0  0  0  0  0
   -5.9320   11.9410   18.0390 C   0  0  0  0  0  1  0  0  0  0  0  0
   -6.5040   12.6550   19.1680 *   0  0  0  0  0  0  0  0  0  0  0  0
  1  7  1  0  0  0  0
  2  1  1  0  0  0  0
  3  2  2  0  0  0  0
  4  5  2  0  0  0  0
  4  3  1  0  0  0  0
  5  6  1  0  0  0  0
  6  1  2  0  0  0  0
  7 10  1  0  0  0  0
  8  9  2  0  0  0  0
  9 11  1  0  0  0  0
  9  7  1  0  0  0  0
 11 12  1  0  0  0  0
 12 14  2  0  0  0  0
 13 11  2  0  0  0  0
 13 15  1  0  0  0  0
 15 16  2  0  0  0  0
 16 14  1  0  0  0  0
 17 15  1  0  0  0  0
 18 17  1  0  0  0  0
 19 21  2  0  0  0  0
 19 18  1  0  0  0  0
 20 24  2  0  0  0  0
 20 18  1  0  0  0  0
 22 23  1  0  0  0  0
 22 19  1  0  0  0  0
 23 20  1  0  0  0  0
 25 22  2  0  0  0  0
 26 23  2  0  0  0  0
 27 28  2  0  0  0  0
 27 25  1  0  0  0  0
 28 26  1  0  0  0  0
 29  5  1  0  0  0  0
 29 31  1  0  0  0  0
 30 29  2  0  0  0  0
 31 34  1  0  0  0  0
 32 30  1  0  0  0  0
 32 33  2  0  0  0  0
 33 37  1  0  0  0  0
 33 31  1  0  0  0  0
 34 35  1  0  0  0  0
M  END
>  <MODEL>
1

>  <REMARK>
 VINA RESULT:    -5.230      0.000      0.000
 INTER + INTRA:          -7.950
 INTER:                  -8.288
 INTRA:                   0.338
 UNBOUND:                 0.338
 SMILES O=C(Nc1cccc(-c2nnc3n2CCCCC3)c1)c1cccc(CN2C(=O)c3ccccc3C2=O)c1
 SMILES IDX 4 1 5 2 6 3 7 4 8 5 19 6 3 7 1 8 2 9 20 11 21 12 37 13 22 14
 SMILES IDX 24 15 23 16 25 17 26 18 27 19 35 20 28 21 29 22 34 23 36 24
 SMILES IDX 30 25 33 26 31 27 32 28 9 29 10 30 13 31 11 32 12 33 14 34
 SMILES IDX 15 35 16 36 18 38 17 39
 H PARENT 3 10
 Flexibility Score: 90.00

>  <TORSDO>
F 5

$$$$
JZ04
 OpenBabel07182316283D

 31 34  0  0  1  0  0  0  0  0999 V2000
    2.1160    7.5450   18.7090 N   0  0  0  0  0  0  0  0  0  0  0  0
    1.7620    8.7670   18.0940 C   0  0  0  0  0  0  0  0  0  0  0  0
    2.2760    9.0500   16.9890 O   0  0  0  0  0  0  0  0  0  0  0  0
    1.6330    7.3870   19.6420 H   0  0  0  0  0  0  0  0  0  0  0  0
    2.9990    6.5540   18.2310 C   0  0  0  0  0  0  0  0  0  0  0  0
    5.0650    5.7570   17.3160 C   0  0  0  0  0  0  0  0  0  0  0  0
    4.5650    4.4780   17.3150 C   0  0  0  0  0  3  0  0  0  0  0  0
    4.2920    6.8190   17.7730 C   0  0  0  0  0  3  0  0  0  0  0  0
    3.2770    4.2050   17.7690 C   0  0  0  0  0  3  0  0  0  0  0  0
    2.5290    5.2460   18.2140 C   0  0  0  0  0  3  0  0  0  0  0  0
    6.4420    5.9950   16.8220 C   0  0  2  0  0  0  0  0  0  0  0  0
    7.0100    7.2430   17.4620 C   0  0  0  0  0  1  0  0  0  0  0  0
    6.4110    6.1930   15.4120 N   0  0  0  0  0  0  0  0  0  0  0  0
    7.3250    4.8340   17.0830 C   0  0  0  0  0  0  0  0  0  0  0  0
    7.4350    5.4040   14.8340 C   0  0  0  0  0  0  0  0  0  0  0  0
    5.7640    6.7980   14.8870 H   0  0  0  0  0  0  0  0  0  0  0  0
    7.9990    4.5670   15.8610 N   0  0  0  0  0  0  0  0  0  0  0  0
    7.4420    4.2310   18.1550 O   0  0  0  0  0  0  0  0  0  0  0  0
    7.8110    5.4120   13.6290 O   0  0  0  0  0  0  0  0  0  0  0  0
    8.7670    3.8850   15.7330 H   0  0  0  0  0  0  0  0  0  0  0  0
    0.8240    9.7040   18.7070 C   0  0  0  0  0  0  0  0  0  0  0  0
    1.0820   10.1630   19.9670 C   0  0  0  0  0  3  0  0  0  0  0  0
   -0.2730   10.1190   18.0720 N   0  0  0  0  0  0  0  0  0  0  0  0
    0.2070   11.0280   20.5230 N   0  0  0  0  0  0  0  0  0  0  0  0
   -1.1610   10.9840   18.6100 C   0  0  0  0  0  0  0  0  0  0  0  0
   -0.8850   11.4390   19.8830 C   0  0  0  0  0  3  0  0  0  0  0  0
   -2.3170   11.4200   17.9390 N   0  0  0  0  0  0  0  0  0  0  0  0
   -3.5390   11.9030   18.5210 C   0  0  0  0  0  2  0  0  0  0  0  0
   -2.5240   11.4790   16.5160 C   0  0  0  0  0  2  0  0  0  0  0  0
   -4.6010   11.3330   17.5840 C   0  0  0  0  0  2  0  0  0  0  0  0
   -3.8700   10.7990   16.3810 C   0  0  0  0  0  2  0  0  0  0  0  0
  1  4  1  0  0  0  0
  2 21  1  0  0  0  0
  2  1  1  0  0  0  0
  3  2  2  0  0  0  0
  5  1  1  0  0  0  0
  6  8  1  0  0  0  0
  7  6  2  0  0  0  0
  7  9  1  0  0  0  0
  8  5  2  0  0  0  0
  9 10  2  0  0  0  0
 10  5  1  0  0  0  0
 11 14  1  0  0  0  0
 11  6  1  0  0  0  0
 11 12  1  1  0  0  0
 13 11  1  0  0  0  0
 14 18  2  0  0  0  0
 15 13  1  0  0  0  0
 15 17  1  0  0  0  0
 16 13  1  0  0  0  0
 17 14  1  0  0  0  0
 19 15  2  0  0  0  0
 20 17  1  0  0  0  0
 21 22  1  0  0  0  0
 22 24  2  0  0  0  0
 23 25  1  0  0  0  0
 23 21  2  0  0  0  0
 25 26  2  0  0  0  0
 26 24  1  0  0  0  0
 27 28  1  0  0  0  0
 27 25  1  0  0  0  0
 29 27  1  0  0  0  0
 30 28  1  0  0  0  0
 31 29  1  0  0  0  0
 31 30  1  0  0  0  0
M  END
>  <MODEL>
1

>  <REMARK>
 VINA RESULT:    -6.131      0.000      0.000
 INTER + INTRA:          -8.035
 INTER:                  -7.565
 INTRA:                  -0.470
 UNBOUND:                -0.470
 SMILES C[C@@]1(c2cccc(NC(=O)c3cncc(N4CCCC4)n3)c2)NC(=O)NC1=O
 SMILES IDX 8 1 9 2 10 3 7 5 3 6 4 7 22 8 5 9 6 10 2 11 1 12 23 13 27 14
 SMILES IDX 24 15 26 17 28 18 25 19 11 21 12 22 21 23 13 24 15 25 14 26
 SMILES IDX 16 27 17 28 20 29 18 30 19 31
 H PARENT 8 4 23 16 26 20
 Flexibility Score: inf

>  <TORSDO>
F 4

$$$$
JZ05
 OpenBabel07182316283D

 31 34  0  0  0  0  0  0  0  0999 V2000
    4.6320    5.8370   17.4810 C   0  0  0  0  0  0  0  0  0  0  0  0
    4.5670    5.1000   18.6450 C   0  0  0  0  0  3  0  0  0  0  0  0
    3.6480    5.4350   19.6060 C   0  0  0  0  0  3  0  0  0  0  0  0
    2.7890    6.5230   19.3930 C   0  0  0  0  0  3  0  0  0  0  0  0
    2.8450    7.2610   18.2430 C   0  0  0  0  0  0  0  0  0  0  0  0
    3.7720    6.9110   17.2880 C   0  0  0  0  0  3  0  0  0  0  0  0
    5.5720    5.5120   16.4720 N   0  0  0  0  0  0  0  0  0  0  0  0
    5.2060    5.1120   15.5820 H   0  0  0  0  0  0  0  0  0  0  0  0
    7.2470    5.7550   16.6750 S   0  0  0  0  0  0  0  0  0  0  0  0
    7.5930    7.2420   17.6030 C   0  0  0  0  0  1  0  0  0  0  0  0
    7.8580    4.6130   17.4210 O   0  0  0  0  0  0  0  0  0  0  0  0
    7.9630    5.8600   15.3590 O   0  0  0  0  0  0  0  0  0  0  0  0
    1.9450    8.3890   18.0350 C   0  0  0  0  0  0  0  0  0  0  0  0
    1.9820    9.0480   16.9400 O   0  0  0  0  0  0  0  0  0  0  0  0
    0.9990    8.8370   18.9720 N   0  0  0  0  0  0  0  0  0  0  0  0
    0.9380    8.3270   19.8760 H   0  0  0  0  0  0  0  0  0  0  0  0
    0.1400    9.9730   18.6810 C   0  0  0  0  0  0  0  0  0  0  0  0
   -0.8880   10.2490   18.3150 N   0  0  0  0  0  0  0  0  0  0  0  0
    0.9000   11.6850   18.9810 S   0  0  0  0  0  0  0  0  0  0  0  0
   -1.4450   11.4500   18.1340 C   0  0  0  0  0  0  0  0  0  0  0  0
   -0.6420   12.4670   18.4380 C   0  0  0  0  0  3  0  0  0  0  0  0
   -2.8240   11.6280   17.6400 C   0  0  0  0  0  0  0  0  0  0  0  0
   -3.2850   11.3630   16.3540 C   0  0  0  0  0  3  0  0  0  0  0  0
   -3.9420   12.0780   18.3050 C   0  0  0  0  0  0  0  0  0  0  0  0
   -4.5820   11.6270   16.2250 N   0  0  0  0  0  0  0  0  0  0  0  0
   -5.0000   12.0700   17.4240 C   0  0  0  0  0  0  0  0  0  0  0  0
   -4.1560   12.4980   19.5860 C   0  0  0  0  0  3  0  0  0  0  0  0
   -5.1530   11.5050   15.3480 H   0  0  0  0  0  0  0  0  0  0  0  0
   -6.2720   12.4720   17.7970 C   0  0  0  0  0  3  0  0  0  0  0  0
   -5.4350   12.9070   19.9750 C   0  0  0  0  0  3  0  0  0  0  0  0
   -6.4950   12.8930   19.0750 C   0  0  0  0  0  3  0  0  0  0  0  0
  1  2  1  0  0  0  0
  2  3  2  0  0  0  0
  4  3  1  0  0  0  0
  5  4  2  0  0  0  0
  6  1  2  0  0  0  0
  6  5  1  0  0  0  0
  7  9  1  0  0  0  0
  7  1  1  0  0  0  0
  8  7  1  0  0  0  0
  9 11  2  0  0  0  0
  9 10  1  0  0  0  0
 12  9  2  0  0  0  0
 13  5  1  0  0  0  0
 13 15  1  0  0  0  0
 14 13  2  0  0  0  0
 15 16  1  0  0  0  0
 17 15  1  0  0  0  0
 17 19  1  0  0  0  0
 18 17  2  0  0  0  0
 20 18  1  0  0  0  0
 20 21  2  0  0  0  0
 21 19  1  0  0  0  0
 22 20  1  0  0  0  0
 22 24  1  0  0  0  0
 23 22  2  0  0  0  0
 24 27  1  0  0  0  0
 25 23  1  0  0  0  0
 25 26  1  0  0  0  0
 26 29  1  0  0  0  0
 26 24  2  0  0  0  0
 27 30  2  0  0  0  0
 28 25  1  0  0  0  0
 29 31  2  0  0  0  0
 31 30  1  0  0  0  0
M  END
>  <MODEL>
1

>  <REMARK>
 VINA RESULT:    -5.989      0.000      0.000
 INTER + INTRA:          -8.388
 INTER:                  -7.740
 INTRA:                  -0.649
 UNBOUND:                -0.649
 SMILES CS(=O)(=O)Nc1cccc(C(=O)Nc2nc(-c3c[nH]c4ccccc34)cs2)c1
 SMILES IDX 6 1 7 2 8 3 9 4 10 5 28 6 5 7 2 9 1 10 3 11 4 12 11 13 12 14
 SMILES IDX 13 15 14 17 15 18 27 19 16 20 26 21 17 22 18 23 25 24 19 25
 SMILES IDX 20 26 24 27 21 29 23 30 22 31
 H PARENT 5 8 13 16 19 28
 Flexibility Score: inf

>  <TORSDO>
F 5

$$$$
JZ06
 OpenBabel07182316283D

 36 39  0  0  0  0  0  0  0  0999 V2000
    2.5210    4.4650   18.9000 C   0  0  0  0  0  0  0  0  0  0  0  0
    2.1580    4.6360   20.2060 C   0  0  0  0  0  3  0  0  0  0  0  0
    1.9250    5.8960   20.7830 C   0  0  0  0  0  3  0  0  0  0  0  0
    2.0500    7.0470   20.0620 C   0  0  0  0  0  0  0  0  0  0  0  0
    2.4240    6.8750   18.7150 C   0  0  0  0  0  3  0  0  0  0  0  0
    2.6480    5.6490   18.1580 C   0  0  0  0  0  3  0  0  0  0  0  0
    2.8120    2.9320   18.1270 S   0  0  0  0  0  0  0  0  0  0  0  0
    2.1890    3.0090   16.7390 O   0  0  0  0  0  0  0  0  0  0  0  0
    2.1190    1.8080   18.8520 O   0  0  0  0  0  0  0  0  0  0  0  0
    4.4910    2.6310   17.9890 N   0  0  0  0  0  0  0  0  0  0  0  0
    4.8570    1.6550   18.2610 H   0  0  0  0  0  0  0  0  0  0  0  0
    5.4350    3.5600   17.5460 C   0  0  0  0  0  0  0  0  0  0  0  0
    6.8830    4.9970   14.4010 C   0  0  0  0  0  1  0  0  0  0  0  0
    6.6440    4.7300   15.8510 C   0  0  0  0  0  0  0  0  0  0  0  0
    5.6660    3.8130   16.2090 C   0  0  0  0  0  3  0  0  0  0  0  0
    7.3260    5.3310   16.8310 N   0  0  0  0  0  0  0  0  0  0  0  0
    7.0880    5.0710   18.1340 C   0  0  0  0  0  0  0  0  0  0  0  0
    6.1580    4.1980   18.4920 N   0  0  0  0  0  0  0  0  0  0  0  0
    7.8870    5.7780   19.1870 C   0  0  0  0  0  1  0  0  0  0  0  0
    1.8490    8.3570   20.5480 N   0  0  0  0  0  0  0  0  0  0  0  0
    0.7430    8.8010   21.2940 C   0  0  0  0  0  0  0  0  0  0  0  0
    2.5860    9.1080   20.3480 H   0  0  0  0  0  0  0  0  0  0  0  0
   -0.1690    8.0090   21.5830 O   0  0  0  0  0  0  0  0  0  0  0  0
    0.7020   10.2110   21.7160 C   0  0  0  0  0  2  0  0  0  0  0  0
    0.7380   11.2230   20.6570 C   0  0  0  0  0  2  0  0  0  0  0  0
   -0.3460   11.2270   19.7080 N   0  0  0  0  0  0  0  0  0  0  0  0
   -0.3750   10.4320   18.4910 C   0  0  0  0  0  0  0  0  0  0  0  0
   -1.5890   11.8800   19.7450 C   0  0  0  0  0  0  0  0  0  0  0  0
    0.5820    9.7070   18.1310 O   0  0  0  0  0  0  0  0  0  0  0  0
   -1.6390   10.6170   17.7990 C   0  0  0  0  0  0  0  0  0  0  0  0
   -2.3780   11.4930   18.5540 C   0  0  0  0  0  0  0  0  0  0  0  0
   -2.0530   12.6710   20.5920 O   0  0  0  0  0  0  0  0  0  0  0  0
   -2.1690   10.1040   16.6200 C   0  0  0  0  0  3  0  0  0  0  0  0
   -3.6420   11.8430   18.1130 C   0  0  0  0  0  3  0  0  0  0  0  0
   -3.4310   10.4710   16.2060 C   0  0  0  0  0  3  0  0  0  0  0  0
   -4.1950   11.3530   16.9500 C   0  0  0  0  0  3  0  0  0  0  0  0
  1  2  1  0  0  0  0
  2  3  2  0  0  0  0
  4 20  1  0  0  0  0
  4  3  1  0  0  0  0
  5  4  2  0  0  0  0
  6  5  1  0  0  0  0
  6  1  2  0  0  0  0
  7  9  2  0  0  0  0
  7  1  1  0  0  0  0
  8  7  2  0  0  0  0
 10  7  1  0  0  0  0
 10 11  1  0  0  0  0
 12 10  1  0  0  0  0
 12 18  2  0  0  0  0
 13 14  1  0  0  0  0
 14 15  2  0  0  0  0
 14 16  1  0  0  0  0
 15 12  1  0  0  0  0
 16 17  2  0  0  0  0
 17 18  1  0  0  0  0
 17 19  1  0  0  0  0
 20 21  1  0  0  0  0
 21 23  2  0  0  0  0
 21 24  1  0  0  0  0
 22 20  1  0  0  0  0
 25 24  1  0  0  0  0
 26 28  1  0  0  0  0
 26 25  1  0  0  0  0
 27 26  1  0  0  0  0
 28 32  2  0  0  0  0
 29 27  2  0  0  0  0
 30 27  1  0  0  0  0
 30 31  1  0  0  0  0
 31 28  1  0  0  0  0
 33 30  2  0  0  0  0
 34 31  2  0  0  0  0
 35 33  1  0  0  0  0
 35 36  2  0  0  0  0
 36 34  1  0  0  0  0
M  END
>  <MODEL>
1

>  <REMARK>
 VINA RESULT:    -6.894      0.000      0.000
 INTER + INTRA:         -10.946
 INTER:                  -9.715
 INTRA:                  -1.230
 UNBOUND:                -1.230
 SMILES Cc1cc(NS(=O)(=O)c2ccc(NC(=O)CCN3C(=O)c4ccccc4C3=O)cc2)nc(C)n1
 SMILES IDX 9 1 10 2 11 3 12 4 29 5 30 6 6 7 7 8 8 9 5 10 4 12 1 13 2 14
 SMILES IDX 3 15 34 16 32 17 31 18 33 19 13 20 14 21 15 23 16 24 17 25
 SMILES IDX 18 26 19 27 27 28 20 29 21 30 26 31 28 32 22 33 25 34 23 35
 SMILES IDX 24 36
 H PARENT 5 11 13 22
 Flexibility Score: inf

>  <TORSDO>
F 7

$$$$
JZ07
 OpenBabel07182316283D

 31 34  0  0  0  0  0  0  0  0999 V2000
    2.1910    6.5610   19.0200 N   0  0  0  0  0  0  0  0  0  0  0  0
    2.2000    7.8820   18.5340 C   0  0  0  0  0  0  0  0  0  0  0  0
    2.7260    8.1340   17.4310 O   0  0  0  0  0  0  0  0  0  0  0  0
    1.7150    6.4570   19.9790 H   0  0  0  0  0  0  0  0  0  0  0  0
    2.7310    5.4100   18.3820 C   0  0  0  0  0  0  0  0  0  0  0  0
    4.7520    4.2920   17.5560 C   0  0  0  0  0  0  0  0  0  0  0  0
    3.9620    3.2590   17.1250 C   0  0  0  0  0  3  0  0  0  0  0  0
    4.0980    5.3580   18.1850 C   0  0  0  0  0  3  0  0  0  0  0  0
    2.5690    3.2560   17.2970 C   0  0  0  0  0  3  0  0  0  0  0  0
    2.0140    4.3400   17.9230 C   0  0  0  0  0  3  0  0  0  0  0  0
    6.1780    4.3230   17.3690 C   0  0  0  0  0  0  0  0  0  0  0  0
    6.4950    4.5390   14.9010 C   0  0  0  0  0  1  0  0  0  0  0  0
    6.8980    4.4260   16.2770 N   0  0  0  0  0  0  0  0  0  0  0  0
    8.1890    4.4230   16.6670 N   0  0  0  0  0  0  0  0  0  0  0  0
    8.2820    4.3220   17.9670 N   0  0  0  0  0  0  0  0  0  0  0  0
    7.0440    4.2610   18.4110 N   0  0  0  0  0  0  0  0  0  0  0  0
    1.5930    8.9890   19.3100 C   0  0  0  0  0  0  0  0  0  0  0  0
    1.0150    8.9570   20.5400 C   0  0  0  0  0  3  0  0  0  0  0  0
    1.5400   10.2160   18.8680 O   0  0  0  0  0  0  0  0  0  0  0  0
    0.6080   10.2270   20.8230 C   0  0  0  0  0  0  0  0  0  0  0  0
    0.9580   11.0040   19.7350 C   0  0  0  0  0  0  0  0  0  0  0  0
   -0.0250   10.8310   21.8810 C   0  0  0  0  0  0  0  0  0  0  0  0
    0.6860   12.3120   19.7170 N   0  0  0  0  0  0  0  0  0  0  0  0
   -0.2930   12.1860   21.8310 C   0  0  0  0  0  3  0  0  0  0  0  0
    0.0690   12.9390   20.7310 C   0  0  0  0  0  0  0  0  0  0  0  0
    0.9750   12.8510   18.8660 H   0  0  0  0  0  0  0  0  0  0  0  0
   -0.1530   14.1710   20.6430 O   0  0  0  0  0  0  0  0  0  0  0  0
   -0.3950    9.9850   23.0370 C   0  0  0  0  0  0  0  0  0  0  0  0
   -0.7900    8.7300   22.6050 F   0  0  0  0  0  0  0  0  0  0  0  0
    0.7330    9.8210   23.8180 F   0  0  0  0  0  0  0  0  0  0  0  0
   -1.4180   10.6010   23.7290 F   0  0  0  0  0  0  0  0  0  0  0  0
  1  4  1  0  0  0  0
  2  1  1  0  0  0  0
  2 17  1  0  0  0  0
  3  2  2  0  0  0  0
  5  1  1  0  0  0  0
  6  8  2  0  0  0  0
  7  9  2  0  0  0  0
  7  6  1  0  0  0  0
  8  5  1  0  0  0  0
  9 10  1  0  0  0  0
 10  5  2  0  0  0  0
 11  6  1  0  0  0  0
 11 16  2  0  0  0  0
 12 13  1  0  0  0  0
 13 14  1  0  0  0  0
 13 11  1  0  0  0  0
 14 15  2  0  0  0  0
 15 16  1  0  0  0  0
 17 18  2  0  0  0  0
 18 20  1  0  0  0  0
 19 17  1  0  0  0  0
 19 21  1  0  0  0  0
 20 22  1  0  0  0  0
 21 20  2  0  0  0  0
 22 28  1  0  0  0  0
 23 21  1  0  0  0  0
 23 25  1  0  0  0  0
 24 22  2  0  0  0  0
 25 24  1  0  0  0  0
 26 23  1  0  0  0  0
 27 25  2  0  0  0  0
 28 31  1  0  0  0  0
 28 30  1  0  0  0  0
 29 28  1  0  0  0  0
M  END
>  <MODEL>
1

>  <REMARK>
 VINA RESULT:    -6.529      0.000      0.000
 INTER + INTRA:          -8.223
 INTER:                  -8.056
 INTRA:                  -0.167
 UNBOUND:                -0.167
 SMILES Cn1nnnc1-c1cccc(NC(=O)c2cc3c(C(F)(F)F)cc(=O)[nH]c3o2)c1
 SMILES IDX 12 1 13 2 14 3 11 5 7 6 8 7 29 8 9 9 10 10 6 11 1 12 2 13
 SMILES IDX 3 14 4 15 5 16 15 17 16 18 28 19 17 20 27 21 18 22 26 23
 SMILES IDX 23 24 24 25 25 27 19 28 20 29 21 30 22 31
 H PARENT 12 4 26 26
 Flexibility Score: inf

>  <TORSDO>
F 4

$$$$
JZ08
 OpenBabel07182316283D

 31 34  0  0  0  0  0  0  0  0999 V2000
   -0.3450   10.7760   20.8060 C   0  0  0  0  0  0  0  0  0  0  0  0
   -0.1110   11.0420   19.4470 C   0  0  0  0  0  3  0  0  0  0  0  0
    0.7050   10.2440   18.6790 C   0  0  0  0  0  3  0  0  0  0  0  0
    1.3330    9.1450   19.1980 C   0  0  0  0  0  0  0  0  0  0  0  0
    1.1050    8.8730   20.5520 C   0  0  0  0  0  3  0  0  0  0  0  0
    0.2760    9.6880   21.3220 C   0  0  0  0  0  3  0  0  0  0  0  0
   -1.2100   11.6640   21.5020 N   0  0  0  0  0  0  0  0  0  0  0  0
    0.3650   12.6710   22.7980 O   0  0  0  0  0  0  0  0  0  0  0  0
   -0.8810   12.5950   22.4890 C   0  0  0  0  0  0  0  0  0  0  0  0
   -2.2420   11.6540   21.2310 H   0  0  0  0  0  0  0  0  0  0  0  0
   -1.7700   13.4900   23.2040 C   0  0  0  0  0  0  0  0  0  0  0  0
   -1.3200   14.8070   23.3530 C   0  0  0  0  0  3  0  0  0  0  0  0
   -3.0140   13.2100   23.6800 C   0  0  0  0  0  0  0  0  0  0  0  0
   -2.0840   15.7700   23.9410 C   0  0  0  0  0  3  0  0  0  0  0  0
   -3.7970   14.2030   24.2850 C   0  0  0  0  0  0  0  0  0  0  0  0
   -3.7030   12.0760   23.7130 N   0  0  0  0  0  0  0  0  0  0  0  0
   -3.3440   15.5000   24.4250 C   0  0  0  0  0  3  0  0  0  0  0  0
   -4.9580   13.6340   24.6700 N   0  0  0  0  0  0  0  0  0  0  0  0
   -4.9000   12.3450   24.3240 C   0  0  0  0  0  0  0  0  0  0  0  0
   -3.4360   11.1280   23.3770 H   0  0  0  0  0  0  0  0  0  0  0  0
   -5.7240   14.1650   25.1490 H   0  0  0  0  0  0  0  0  0  0  0  0
   -5.8250   11.5060   24.5340 O   0  0  0  0  0  0  0  0  0  0  0  0
    2.1990    8.2620   18.3880 C   0  0  0  0  0  2  0  0  0  0  0  0
    2.7300    7.0870   19.1110 C   0  0  0  0  0  2  0  0  0  0  0  0
    2.8750    5.8390   18.3460 C   0  0  0  0  0  0  0  0  0  0  0  0
    3.4560    5.7190   17.2500 O   0  0  0  0  0  0  0  0  0  0  0  0
    2.2930    4.6150   18.9010 N   0  0  0  0  0  0  0  0  0  0  0  0
    2.3520    3.3340   18.2830 C   0  0  0  0  0  2  0  0  0  0  0  0
    1.5990    4.5600   20.1380 C   0  0  0  0  0  2  0  0  0  0  0  0
    1.3390    2.4820   18.9830 C   0  0  0  0  0  2  0  0  0  0  0  0
    1.1790    3.1480   20.3220 C   0  0  0  0  0  2  0  0  0  0  0  0
  1  6  1  0  0  0  0
  1  7  1  0  0  0  0
  2  1  2  0  0  0  0
  3  4  2  0  0  0  0
  3  2  1  0  0  0  0
  4  5  1  0  0  0  0
  5  6  2  0  0  0  0
  7  9  1  0  0  0  0
  9  8  2  0  0  0  0
  9 11  1  0  0  0  0
 10  7  1  0  0  0  0
 11 12  2  0  0  0  0
 11 13  1  0  0  0  0
 12 14  1  0  0  0  0
 13 16  1  0  0  0  0
 13 15  2  0  0  0  0
 14 17  2  0  0  0  0
 15 17  1  0  0  0  0
 15 18  1  0  0  0  0
 16 19  1  0  0  0  0
 18 21  1  0  0  0  0
 19 22  2  0  0  0  0
 19 18  1  0  0  0  0
 20 16  1  0  0  0  0
 23 24  1  0  0  0  0
 23  4  1  0  0  0  0
 25 27  1  0  0  0  0
 25 24  1  0  0  0  0
 26 25  2  0  0  0  0
 27 29  1  0  0  0  0
 28 27  1  0  0  0  0
 28 30  1  0  0  0  0
 29 31  1  0  0  0  0
 30 31  1  0  0  0  0
M  END
>  <MODEL>
1

>  <REMARK>
 VINA RESULT:    -6.598      0.000      0.000
 INTER + INTRA:          -9.287
 INTER:                  -8.527
 INTRA:                  -0.760
 UNBOUND:                -0.760
 SMILES O=C(Nc1ccc(CCC(=O)N2CCCC2)cc1)c1cccc2[nH]c(=O)[nH]c12
 SMILES IDX 4 1 5 2 6 3 7 4 17 5 18 6 3 7 1 8 2 9 19 11 20 12 28 13
 SMILES IDX 21 14 23 15 27 16 22 17 24 18 25 19 26 22 8 23 9 24 10 25
 SMILES IDX 11 26 12 27 13 28 16 29 14 30 15 31
 H PARENT 3 10 27 20 24 21
 Flexibility Score: inf

>  <TORSDO>
F 5

$$$$
JZ09
 OpenBabel07182316283D

 31 34  0  0  0  0  0  0  0  0999 V2000
    1.9150    7.6530   20.7700 N   0  0  0  0  0  0  0  0  0  0  0  0
    2.3230    7.3130   19.4600 C   0  0  0  0  0  0  0  0  0  0  0  0
    1.9800    8.0940   18.5090 O   0  0  0  0  0  0  0  0  0  0  0  0
    2.1810    6.9100   21.5030 H   0  0  0  0  0  0  0  0  0  0  0  0
    1.1770    8.7860   21.1710 C   0  0  0  0  0  0  0  0  0  0  0  0
   -0.2800   10.9110   22.2650 C   0  0  0  0  0  0  0  0  0  0  0  0
    0.0900   10.9360   20.9400 C   0  0  0  0  0  3  0  0  0  0  0  0
    0.0620    9.8490   23.0570 C   0  0  0  0  0  3  0  0  0  0  0  0
    0.8180    9.8570   20.4240 C   0  0  0  0  0  3  0  0  0  0  0  0
    0.7760    8.8100   22.5170 C   0  0  0  0  0  3  0  0  0  0  0  0
   -1.0410   12.0190   22.8460 C   0  0  0  0  0  0  0  0  0  0  0  0
   -2.3800   11.8420   23.2660 N   0  0  0  0  0  0  0  0  0  0  0  0
   -2.6710   12.2450   24.1940 H   0  0  0  0  0  0  0  0  0  0  0  0
   -3.1130   11.3380   22.7240 H   0  0  0  0  0  0  0  0  0  0  0  0
   -0.4960   13.1370   22.9720 O   0  0  0  0  0  0  0  0  0  0  0  0
    3.1030    6.1220   19.1260 C   0  0  0  0  0  0  0  0  0  0  0  0
    4.0010    6.1560   18.0500 C   0  0  0  0  0  3  0  0  0  0  0  0
    2.8890    4.9480   19.7840 C   0  0  0  0  0  0  0  0  0  0  0  0
    4.6800    5.0400   17.6240 C   0  0  0  0  0  0  0  0  0  0  0  0
    3.5800    3.8140   19.3480 C   0  0  0  0  0  0  0  0  0  0  0  0
    2.0540    4.8110   20.8790 C   0  0  0  0  0  3  0  0  0  0  0  0
    4.4190    3.9070   18.3190 N   0  0  0  0  0  0  0  0  0  0  0  0
    3.3870    2.6170   20.0280 C   0  0  0  0  0  3  0  0  0  0  0  0
    1.8910    3.5980   21.5280 C   0  0  0  0  0  3  0  0  0  0  0  0
    2.5580    2.4750   21.1110 C   0  0  0  0  0  3  0  0  0  0  0  0
    5.6100    5.0560   16.5160 C   0  0  0  0  0  0  0  0  0  0  0  0
    5.4140    4.3300   15.3740 C   0  0  0  0  0  3  0  0  0  0  0  0
    6.7450    5.8270   16.5970 C   0  0  0  0  0  3  0  0  0  0  0  0
    6.3520    4.3790   14.3240 C   0  0  0  0  0  3  0  0  0  0  0  0
    7.6420    5.8670   15.5780 N   0  0  0  0  0  0  0  0  0  0  0  0
    7.4780    5.1630   14.4400 C   0  0  0  0  0  3  0  0  0  0  0  0
  1  5  1  0  0  0  0
  1  4  1  0  0  0  0
  2  1  1  0  0  0  0
  3  2  2  0  0  0  0
  5 10  1  0  0  0  0
  6 11  1  0  0  0  0
  6  8  1  0  0  0  0
  7  6  2  0  0  0  0
  9  7  1  0  0  0  0
  9  5  2  0  0  0  0
 10  8  2  0  0  0  0
 11 15  2  0  0  0  0
 11 12  1  0  0  0  0
 12 13  1  0  0  0  0
 14 12  1  0  0  0  0
 16  2  1  0  0  0  0
 16 18  1  0  0  0  0
 17 16  2  0  0  0  0
 18 21  1  0  0  0  0
 19 17  1  0  0  0  0
 19 22  2  0  0  0  0
 20 18  2  0  0  0  0
 20 23  1  0  0  0  0
 21 24  2  0  0  0  0
 22 20  1  0  0  0  0
 23 25  2  0  0  0  0
 25 24  1  0  0  0  0
 26 28  1  0  0  0  0
 26 19  1  0  0  0  0
 27 26  2  0  0  0  0
 29 31  2  0  0  0  0
 29 27  1  0  0  0  0
 30 28  2  0  0  0  0
 31 30  1  0  0  0  0
M  END
>  <MODEL>
1

>  <REMARK>
 VINA RESULT:    -7.461      0.000      0.000
 INTER + INTRA:          -9.150
 INTER:                  -9.206
 INTRA:                   0.056
 UNBOUND:                 0.056
 SMILES NC(=O)c1ccc(NC(=O)c2cc(-c3cccnc3)nc3ccccc23)cc1
 SMILES IDX 8 1 9 2 10 3 7 5 4 6 5 7 28 8 6 9 27 10 2 11 1 12 3 15 11 16
 SMILES IDX 12 17 26 18 13 19 21 20 25 21 20 22 22 23 24 24 23 25 14 26
 SMILES IDX 15 27 19 28 16 29 18 30 17 31
 H PARENT 8 4 1 13 1 14
 Flexibility Score: inf

>  <TORSDO>
F 4

$$$$
JZ10
 OpenBabel07182316283D

 29 33  0  0  0  0  0  0  0  0999 V2000
    2.0790    7.6800   19.5180 N   0  0  0  0  0  0  0  0  0  0  0  0
    1.5290    8.0740   20.7770 C   0  0  0  0  0  2  0  0  0  0  0  0
    0.9320    9.3960   20.5720 C   0  0  0  0  0  0  0  0  0  0  0  0
    1.1260    9.8080   19.2830 C   0  0  0  0  0  0  0  0  0  0  0  0
    0.6810   11.0170   18.7920 C   0  0  0  0  0  3  0  0  0  0  0  0
    0.0010   11.8600   19.6470 C   0  0  0  0  0  3  0  0  0  0  0  0
   -0.2130   11.4710   20.9660 C   0  0  0  0  0  3  0  0  0  0  0  0
    0.2420   10.2570   21.4330 C   0  0  0  0  0  0  0  0  0  0  0  0
    1.8450    8.7450   18.6060 C   0  0  0  0  0  0  0  0  0  0  0  0
    2.1990    8.7880   17.3790 O   0  0  0  0  0  0  0  0  0  0  0  0
    2.7450    6.4910   19.1210 C   0  0  0  0  0  0  0  0  0  0  0  0
    4.7190    5.1660   18.6820 C   0  0  0  0  0  0  0  0  0  0  0  0
    4.1120    6.3360   19.0690 C   0  0  0  0  0  3  0  0  0  0  0  0
    3.8900    4.1440   18.3450 N   0  0  0  0  0  0  0  0  0  0  0  0
    2.5600    4.2560   18.3840 C   0  0  0  0  0  0  0  0  0  0  0  0
    2.0070    5.4140   18.7660 N   0  0  0  0  0  0  0  0  0  0  0  0
    6.1610    5.0290   18.6260 C   0  0  0  0  0  0  0  0  0  0  0  0
    6.5060    4.5160   16.2040 C   0  0  0  0  0  1  0  0  0  0  0  0
    6.9410    4.7520   17.5690 N   0  0  0  0  0  0  0  0  0  0  0  0
    8.2010    4.7400   18.0420 C   0  0  0  0  0  3  0  0  0  0  0  0
    8.2210    5.0010   19.3520 N   0  0  0  0  0  0  0  0  0  0  0  0
    6.9460    5.1840   19.7320 N   0  0  0  0  0  0  0  0  0  0  0  0
    1.7210    3.1040   18.0030 C   0  0  0  0  0  3  0  0  0  0  0  0
    1.9960    1.7410   18.6220 C   0  0  0  0  0  2  0  0  0  0  0  0
    0.7670    2.4980   18.9680 C   0  0  0  0  0  2  0  0  0  0  0  0
    0.0140    9.8450   22.8450 C   0  0  0  0  0  0  0  0  0  0  0  0
    1.1770    9.6030   23.5320 F   0  0  0  0  0  0  0  0  0  0  0  0
   -0.6200   10.8910   23.4760 F   0  0  0  0  0  0  0  0  0  0  0  0
   -0.8090    8.7370   22.8460 F   0  0  0  0  0  0  0  0  0  0  0  0
  1  2  1  0  0  0  0
  3  2  1  0  0  0  0
  3  8  1  0  0  0  0
  4  3  2  0  0  0  0
  5  4  1  0  0  0  0
  5  6  2  0  0  0  0
  6  7  1  0  0  0  0
  7  8  2  0  0  0  0
  8 26  1  0  0  0  0
  9  4  1  0  0  0  0
  9  1  1  0  0  0  0
 10  9  2  0  0  0  0
 11  1  1  0  0  0  0
 12 13  2  0  0  0  0
 13 11  1  0  0  0  0
 14 15  2  0  0  0  0
 14 12  1  0  0  0  0
 15 16  1  0  0  0  0
 16 11  2  0  0  0  0
 17 12  1  0  0  0  0
 17 22  2  0  0  0  0
 18 19  1  0  0  0  0
 19 20  1  0  0  0  0
 19 17  1  0  0  0  0
 20 21  2  0  0  0  0
 21 22  1  0  0  0  0
 23 15  1  0  0  0  0
 23 24  1  0  0  0  0
 23 25  1  0  0  0  0
 24 25  1  0  0  0  0
 26 29  1  0  0  0  0
 26 28  1  0  0  0  0
 26 27  1  0  0  0  0
M  END
>  <MODEL>
1

>  <REMARK>
 VINA RESULT:    -6.520      0.000      0.000
 INTER + INTRA:          -8.708
 INTER:                  -8.044
 INTRA:                  -0.664
 UNBOUND:                -0.664
 SMILES Cn1cnnc1-c1cc(N2Cc3c(cccc3C(F)(F)F)C2=O)nc(C2CC2)n1
 SMILES IDX 10 1 11 2 12 3 13 4 14 5 15 6 16 7 17 8 22 9 23 10 9 11 7 12
 SMILES IDX 8 13 29 14 25 15 24 16 6 17 1 18 2 19 3 20 4 21 5 22 26 23
 SMILES IDX 27 24 28 25 18 26 19 27 20 28 21 29
 H PARENT
 Flexibility Score: inf

>  <TORSDO>
F 4

$$$$
WY01
 OpenBabel07182316283D

 30 32  0  0  1  0  0  0  0  0999 V2000
    3.1240    6.3960   18.9660 C   0  0  0  0  0  0  0  0  0  0  0  0
    2.7150    5.1190   19.1910 C   0  0  0  0  0  3  0  0  0  0  0  0
    3.5890    4.0340   19.1430 C   0  0  0  0  0  3  0  0  0  0  0  0
    4.9210    4.2260   18.8600 C   0  0  0  0  0  3  0  0  0  0  0  0
    5.3670    5.5180   18.6270 C   0  0  0  0  0  0  0  0  0  0  0  0
    4.4880    6.5680   18.6800 C   0  0  0  0  0  3  0  0  0  0  0  0
    2.2840    7.5310   18.9870 N   0  0  0  0  0  0  0  0  0  0  0  0
    2.1020    8.4440   17.9620 C   0  0  0  0  0  0  0  0  0  0  0  0
    2.7280    8.3110   16.8620 O   0  0  0  0  0  0  0  0  0  0  0  0
    1.7300    7.7020   19.8860 H   0  0  0  0  0  0  0  0  0  0  0  0
    1.1940    9.5940   18.0870 C   0  0  0  0  0  0  0  0  0  0  0  0
    1.1940   13.1740   19.0690 C   0  0  0  0  0  1  0  0  0  0  0  0
    0.6900   11.8520   18.6010 C   0  0  0  0  0  0  0  0  0  0  0  0
    1.6300   10.8160   18.5130 C   0  0  0  0  0  3  0  0  0  0  0  0
   -0.5970   11.6500   18.2780 N   0  0  0  0  0  0  0  0  0  0  0  0
   -1.0120   10.4400   17.8590 C   0  0  0  0  0  0  0  0  0  0  0  0
   -0.1160    9.4690   17.7800 N   0  0  0  0  0  0  0  0  0  0  0  0
   -2.4370   10.1910   17.4950 C   0  0  0  0  0  3  0  0  0  0  0  0
   -2.8550   10.2580   16.0650 C   0  0  0  0  0  2  0  0  0  0  0  0
   -3.1570   11.3820   16.9730 C   0  0  0  0  0  2  0  0  0  0  0  0
    6.8150    5.6980   18.3250 C   0  0  2  0  0  3  0  0  0  0  0  0
    6.9810    7.0300   17.6740 C   0  0  0  0  0  1  0  0  0  0  0  0
    7.2320    4.5350   17.4560 C   0  0  0  0  0  2  0  0  0  0  0  0
    7.3990    4.8400   16.0840 C   0  0  0  0  0  0  0  0  0  0  0  0
    8.1200    5.4470   15.3150 N   0  0  0  0  0  2  0  0  0  0  0  0
    6.0820    4.0940   14.8630 S   0  0  0  0  0  0  0  0  0  0  0  0
    7.9020    5.4780   13.9960 N   0  0  0  0  0  0  0  0  0  0  0  0
    6.9540    4.8950   13.4480 C   0  0  0  0  0  3  0  0  0  0  0  0
    4.9490    6.5120   15.1970 Cl  0  0  0  0  0 15  0  0  0  0  0  0
    5.0180    3.6890   15.0190 H   0  0  0  0  0  0  0  0  0  0  0  0
  1  7  1  0  0  0  0
  1  2  1  0  0  0  0
  3  2  2  0  0  0  0
  4  3  1  0  0  0  0
  5  6  1  0  0  0  0
  5  4  2  0  0  0  0
  6  1  2  0  0  0  0
  7 10  1  0  0  0  0
  8 11  1  0  0  0  0
  8  7  1  0  0  0  0
  9  8  2  0  0  0  0
 11 14  1  0  0  0  0
 13 12  1  0  0  0  0
 14 13  2  0  0  0  0
 15 13  1  0  0  0  0
 16 15  2  0  0  0  0
 17 16  1  0  0  0  0
 17 11  2  0  0  0  0
 18 16  1  0  0  0  0
 19 20  1  0  0  0  0
 19 18  1  0  0  0  0
 20 18  1  0  0  0  0
 21 22  1  6  0  0  0
 21  5  1  0  0  0  0
 23 21  1  0  0  0  0
 24 23  1  0  0  0  0
 25 24  1  0  0  0  0
 26 30  1  0  0  0  0
 26 24  2  0  0  0  0
 27 25  1  0  0  0  0
 28 27  2  0  0  0  0
 28 26  1  0  0  0  0
M  END
>  <MODEL>
1

>  <REMARK>
 VINA RESULT:    -6.342      0.000      0.000
 INTER + INTRA:          -9.257
 INTER:                  -8.567
 INTRA:                  -0.690
 UNBOUND:                -0.690
 SMILES Cc1cc(C(=O)Nc2cccc([C@H](C)CC3=NN=C[S@@H]3Cl)c2)nc(C2CC2)n1
 SMILES IDX 8 1 9 2 10 3 11 4 12 5 22 6 7 7 5 8 6 9 4 11 1 12 2 13 3 14
 SMILES IDX 28 15 24 16 23 17 25 18 26 19 27 20 13 21 14 22 15 23 16 24
 SMILES IDX 17 25 20 26 18 27 19 28 21 29
 H PARENT 7 10 20 30
 Flexibility Score: inf

>  <TORSDO>
F 6

$$$$
WY02
 OpenBabel07182316283D

 40 44  0  0  1  0  0  0  0  0999 V2000
    0.4430   11.5940   19.4570 C   0  0  0  0  0  0  0  0  0  0  0  0
    1.1170   10.7600   18.5320 C   0  0  0  0  0  3  0  0  0  0  0  0
    1.5260    9.5030   18.8500 C   0  0  0  0  0  0  0  0  0  0  0  0
    1.3120    8.9490   20.0990 C   0  0  0  0  0  0  0  0  0  0  0  0
    1.8680    7.5730   20.1340 C   0  0  0  0  0  2  0  0  0  0  0  0
    2.4300    7.3600   18.8440 N   0  0  0  0  0  0  0  0  0  0  0  0
    2.2390    8.5080   18.0270 C   0  0  0  0  0  0  0  0  0  0  0  0
    2.5870    8.6840   16.8410 O   0  0  0  0  0  0  0  0  0  0  0  0
    0.6570    9.7350   21.0280 C   0  0  0  0  0  0  0  0  0  0  0  0
    0.2480   11.0190   20.6830 C   0  0  0  0  0  3  0  0  0  0  0  0
    0.0580   12.9200   19.0550 C   0  0  0  0  0  0  0  0  0  0  0  0
   -0.6320   13.0000   17.9680 O   0  0  0  0  0  0  0  0  0  0  0  0
    0.3280   14.1400   19.6780 N   0  0  0  0  0  0  0  0  0  0  0  0
    1.7230   15.9130   18.6970 C   0  0  0  0  0  1  0  0  0  0  0  0
    1.4830   14.9790   19.8550 C   0  0  1  0  0  3  0  0  0  0  0  0
    1.2380   15.8730   21.0720 C   0  0  0  0  0  2  0  0  0  0  0  0
   -0.0200   15.2810   21.6790 C   0  0  1  0  0  3  0  0  0  0  0  0
   -0.7450   14.8900   20.4050 C   0  0  0  0  0  2  0  0  0  0  0  0
    0.3140   14.1810   22.4310 O   0  0  0  0  0  0  0  0  0  0  0  0
   -0.4180   13.5230   22.4190 H   0  0  0  0  0  0  0  0  0  0  0  0
    0.4100    9.1740   22.3800 C   0  0  0  0  0  0  0  0  0  0  0  0
    1.5710    8.7720   23.0060 F   0  0  0  0  0  0  0  0  0  0  0  0
   -0.4450    8.0820   22.1800 F   0  0  0  0  0  0  0  0  0  0  0  0
   -0.4910   10.3590   23.3390 Cl  0  0  0  0  0  0  0  0  0  0  0  0
    3.1140    6.2050   18.3300 C   0  0  0  0  0  0  0  0  0  0  0  0
    2.7900    4.9830   18.8680 C   0  0  0  0  0  3  0  0  0  0  0  0
    4.0590    6.2580   17.3480 C   0  0  0  0  0  3  0  0  0  0  0  0
    3.4170    3.8220   18.4170 C   0  0  0  0  0  3  0  0  0  0  0  0
    4.7190    5.1540   16.8540 C   0  0  0  0  0  0  0  0  0  0  0  0
    4.3690    3.9320   17.4190 C   0  0  0  0  0  3  0  0  0  0  0  0
    5.7100    5.3060   15.8060 C   0  0  2  0  0  3  0  0  0  0  0  0
    5.2750    4.5500   14.5770 C   0  0  0  0  0  1  0  0  0  0  0  0
    7.1350    5.0130   16.1610 C   0  0  0  0  0  2  0  0  0  0  0  0
    7.4900    5.3460   17.5620 C   0  0  0  0  0  0  0  0  0  0  0  0
    7.7260    6.5510   18.1630 C   0  0  0  0  0  0  0  0  0  0  0  0
    7.6660    4.3970   18.5190 N   0  0  0  0  0  0  0  0  0  0  0  0
    8.0430    6.3160   19.4830 C   0  0  0  0  0  3  0  0  0  0  0  0
    7.6400    7.8810   17.5110 C   0  0  0  0  0  1  0  0  0  0  0  0
    7.9910    4.9880   19.6480 N   0  0  0  0  0  0  0  0  0  0  0  0
    7.5560    3.3610   18.3690 H   0  0  0  0  0  0  0  0  0  0  0  0
  1 10  1  0  0  0  0
  2  3  1  0  0  0  0
  2  1  2  0  0  0  0
  3  4  2  0  0  0  0
  4  5  1  0  0  0  0
  4  9  1  0  0  0  0
  6  5  1  0  0  0  0
  7  6  1  0  0  0  0
  7  3  1  0  0  0  0
  8  7  2  0  0  0  0
  9 21  1  0  0  0  0
 10  9  2  0  0  0  0
 11  1  1  0  0  0  0
 11 13  1  0  0  0  0
 12 11  2  0  0  0  0
 13 15  1  0  0  0  0
 13 18  1  0  0  0  0
 15 14  1  6  0  0  0
 15 16  1  0  0  0  0
 16 17  1  0  0  0  0
 17 19  1  1  0  0  0
 18 17  1  0  0  0  0
 20 19  1  0  0  0  0
 21 22  1  0  0  0  0
 21 24  1  0  0  0  0
 23 21  1  0  0  0  0
 25  6  1  0  0  0  0
 25 26  1  0  0  0  0
 27 25  2  0  0  0  0
 28 26  2  0  0  0  0
 29 27  1  0  0  0  0
 29 30  2  0  0  0  0
 30 28  1  0  0  0  0
 31 32  1  6  0  0  0
 31 33  1  0  0  0  0
 31 29  1  0  0  0  0
 33 34  1  0  0  0  0
 34 35  2  0  0  0  0
 34 36  1  0  0  0  0
 35 37  1  0  0  0  0
 36 39  1  0  0  0  0
 37 39  2  0  0  0  0
 38 35  1  0  0  0  0
 40 36  1  0  0  0  0
M  END
>  <MODEL>
1

>  <REMARK>
 VINA RESULT:    -7.212      0.000      0.000
 INTER + INTRA:         -11.873
 INTER:                 -10.374
 INTRA:                  -1.499
 UNBOUND:                -1.499
 SMILES Cc1cn[nH]c1C[C@@H](C)c1cccc(N2Cc3c(cc(C(=O)N4C[C@@H](O)C[C@@H]4C)cc3C(F)(F)Cl)C2=O)c1
 SMILES IDX 20 1 19 2 18 3 17 4 16 5 15 6 36 7 37 8 31 9 30 10 21 11
 SMILES IDX 22 12 23 13 29 14 28 15 27 16 25 17 24 18 26 19 32 21 33 22
 SMILES IDX 34 23 35 24 14 25 13 26 38 27 12 28 10 29 11 30 8 31 9 32
 SMILES IDX 7 33 6 34 2 35 5 36 3 37 1 38 4 39
 H PARENT 26 20 5 40
 Flexibility Score: inf

>  <TORSDO>
F 8

$$$$
WY03
 OpenBabel07182316283D

 33 37  0  0  1  0  0  0  0  0999 V2000
   -1.5890   10.8570   18.1420 C   0  0  0  0  0  0  0  0  0  0  0  0
   -0.7010    9.8300   17.7920 C   0  0  0  0  0  3  0  0  0  0  0  0
    0.6590    9.9540   17.9560 C   0  0  0  0  0  0  0  0  0  0  0  0
    1.1300   11.1550   18.4910 C   0  0  0  0  0  3  0  0  0  0  0  0
    0.2630   12.1660   18.8370 C   0  0  0  0  0  3  0  0  0  0  0  0
   -1.1070   12.0230   18.6630 C   0  0  0  0  0  3  0  0  0  0  0  0
   -3.0190   10.6500   17.9370 C   0  0  1  0  0  3  0  0  0  0  0  0
   -3.9330   11.8720   17.8150 C   0  0  1  0  0  3  0  0  0  0  0  0
   -3.6730   11.0710   16.6490 C   0  0  0  0  0  2  0  0  0  0  0  0
   -5.1080   11.8030   18.6750 C   0  0  0  0  0  0  0  0  0  0  0  0
   -4.3820   12.8990   20.7540 C   0  0  0  0  0  1  0  0  0  0  0  0
   -5.3300   12.2400   19.9270 N   0  0  0  0  0  0  0  0  0  0  0  0
   -6.6100   11.9390   20.2740 C   0  0  0  0  0  3  0  0  0  0  0  0
   -7.1710   11.3230   19.2500 N   0  0  0  0  0  0  0  0  0  0  0  0
   -6.2860   11.2410   18.3020 N   0  0  0  0  0  0  0  0  0  0  0  0
    1.5880    8.9680   17.6110 N   0  0  0  0  0  0  0  0  0  0  0  0
    2.2430    8.0690   18.4590 C   0  0  0  0  0  0  0  0  0  0  0  0
    1.8480    8.8720   16.5740 H   0  0  0  0  0  0  0  0  0  0  0  0
    2.0160    8.0920   19.6860 O   0  0  0  0  0  0  0  0  0  0  0  0
    3.2000    7.0940   17.9320 C   0  0  0  0  0  0  0  0  0  0  0  0
    3.0680    5.7590   17.9990 N   0  0  0  0  0  0  0  0  0  0  0  0
    4.3440    7.4010   17.3060 N   0  0  0  0  0  0  0  0  0  0  0  0
    4.1200    5.1740   17.4210 C   0  0  0  0  0  0  0  0  0  0  0  0
    4.9210    6.2190   16.9860 C   0  0  0  0  0  0  0  0  0  0  0  0
    4.7260    8.3580   17.1010 H   0  0  0  0  0  0  0  0  0  0  0  0
    4.4660    3.8560   17.2260 C   0  0  0  0  0  0  0  0  0  0  0  0
    6.1030    5.9440   16.3390 C   0  0  0  0  0  3  0  0  0  0  0  0
    5.6550    3.5980   16.5750 C   0  0  0  0  0  3  0  0  0  0  0  0
    6.4610    4.6320   16.1370 C   0  0  0  0  0  3  0  0  0  0  0  0
    3.6080    2.7360   17.6910 C   0  0  0  0  0  0  0  0  0  0  0  0
    4.1710    1.5090   17.4000 F   0  0  0  0  0  0  0  0  0  0  0  0
    2.3560    2.7570   17.1110 F   0  0  0  0  0  0  0  0  0  0  0  0
    3.3890    2.8070   19.4540 Cl  0  0  0  0  0  0  0  0  0  0  0  0
  1  6  1  0  0  0  0
  2  3  1  0  0  0  0
  2  1  2  0  0  0  0
  3  4  2  0  0  0  0
  4  5  1  0  0  0  0
  6  5  2  0  0  0  0
  7  1  1  6  0  0  0
  8  7  1  0  0  0  0
  8 10  1  1  0  0  0
  9  8  1  0  0  0  0
  9  7  1  0  0  0  0
 10 12  1  0  0  0  0
 12 13  1  0  0  0  0
 12 11  1  0  0  0  0
 14 13  2  0  0  0  0
 15 10  2  0  0  0  0
 15 14  1  0  0  0  0
 16  3  1  0  0  0  0
 16 17  1  0  0  0  0
 17 19  2  0  0  0  0
 18 16  1  0  0  0  0
 20 21  2  0  0  0  0
 20 17  1  0  0  0  0
 22 20  1  0  0  0  0
 23 21  1  0  0  0  0
 24 22  1  0  0  0  0
 24 23  2  0  0  0  0
 25 22  1  0  0  0  0
 26 23  1  0  0  0  0
 26 30  1  0  0  0  0
 27 24  1  0  0  0  0
 28 26  2  0  0  0  0
 29 27  2  0  0  0  0
 29 28  1  0  0  0  0
 30 33  1  0  0  0  0
 31 30  1  0  0  0  0
 32 30  1  0  0  0  0
M  END
>  <MODEL>
1

>  <REMARK>
 VINA RESULT:    -5.836      0.000      0.000
 INTER + INTRA:          -7.798
 INTER:                  -7.541
 INTRA:                  -0.257
 UNBOUND:                -0.257
 SMILES Cn1cnnc1[C@@H]1C[C@H]1c1cccc(NC(=O)c2nc3c(C(F)(F)Cl)cccc3[nH]2)c1
 SMILES IDX 10 1 31 2 14 3 13 4 12 5 11 6 9 7 7 8 8 9 6 10 1 11 2 12
 SMILES IDX 3 13 4 14 5 15 15 16 16 17 17 19 18 20 19 21 30 22 20 23
 SMILES IDX 29 24 21 26 28 27 26 28 27 29 22 30 23 31 24 32 25 33
 H PARENT 15 18 30 25
 Flexibility Score: inf

>  <TORSDO>
F 5

$$$$
WY04
 OpenBabel07182316283D

 36 40  0  0  1  0  0  0  0  0999 V2000
    2.6670    6.5450   19.4360 C   0  0  0  0  0  0  0  0  0  0  0  0
    2.8850    6.8770   18.1080 C   0  0  0  0  0  3  0  0  0  0  0  0
    2.4700    8.0920   17.5890 C   0  0  0  0  0  3  0  0  0  0  0  0
    1.8370    8.9690   18.4240 C   0  0  0  0  0  3  0  0  0  0  0  0
    1.6000    8.6720   19.7570 C   0  0  0  0  0  0  0  0  0  0  0  0
    2.0320    7.4350   20.2460 C   0  0  0  0  0  3  0  0  0  0  0  0
    3.1650    5.2520   19.9450 C   0  0  1  0  0  3  0  0  0  0  0  0
    2.1260    4.4240   20.6030 C   0  0  0  0  0  1  0  0  0  0  0  0
    3.7400    4.4940   18.7590 C   0  0  0  0  0  2  0  0  0  0  0  0
    5.2170    4.6290   18.6890 C   0  0  0  0  0  0  0  0  0  0  0  0
    6.0910    4.8890   19.6730 N   0  0  0  0  0  0  0  0  0  0  0  0
    5.9320    4.5080   17.5650 N   0  0  0  0  0  0  0  0  0  0  0  0
    7.3060    4.9260   19.1620 N   0  0  0  0  0  0  0  0  0  0  0  0
    7.2380    4.6930   17.8580 C   0  0  0  0  0  3  0  0  0  0  0  0
    5.4540    4.2280   16.2100 C   0  0  0  0  0  1  0  0  0  0  0  0
    0.9620    9.6240   20.6510 C   0  0  0  0  0  0  0  0  0  0  0  0
    1.1900    9.8690   21.9400 N   0  0  0  0  0  0  0  0  0  0  0  0
   -0.0710   10.4750   20.3000 C   0  0  0  0  0  0  0  0  0  0  0  0
    0.3540   10.8150   22.3830 N   0  0  0  0  0  0  0  0  0  0  0  0
   -0.4610   11.2310   21.3950 C   0  0  0  0  0  0  0  0  0  0  0  0
   -0.7170   10.6800   19.1260 N   0  0  0  0  0  0  0  0  0  0  0  0
    0.3310   11.1870   23.3620 H   0  0  0  0  0  0  0  0  0  0  0  0
   -1.4750   12.1730   21.3290 C   0  0  0  0  0  0  0  0  0  0  0  0
   -1.7030   11.5780   19.0000 C   0  0  0  0  0  0  0  0  0  0  0  0
   -2.0880   12.3290   20.0950 C   0  0  0  0  0  3  0  0  0  0  0  0
   -1.8260   12.8720   22.5050 N   0  0  0  0  0  0  0  0  0  0  0  0
   -2.8320   12.3260   23.4310 C   0  0  0  0  0  2  0  0  0  0  0  0
   -1.3580   14.1360   23.0420 C   0  0  0  0  0  2  0  0  0  0  0  0
   -3.4330   13.6290   23.9790 C   0  0  0  0  0  2  0  0  0  0  0  0
   -2.1250   14.3580   24.3200 C   0  0  2  0  0  3  0  0  0  0  0  0
   -2.4160   15.6740   24.5860 O   0  0  0  0  0  0  0  0  0  0  0  0
   -1.8510   16.0270   25.3290 H   0  0  0  0  0  0  0  0  0  0  0  0
   -2.3670   11.7540   17.6940 C   0  0  0  0  0  0  0  0  0  0  0  0
   -1.6130   12.5610   16.8630 F   0  0  0  0  0  0  0  0  0  0  0  0
   -3.5940   12.3710   17.8490 F   0  0  0  0  0  0  0  0  0  0  0  0
   -2.5880    9.8610   16.7030 I   0  0  0  0  0  0  0  0  0  0  0  0
  1  7  1  0  0  0  0
  1  6  1  0  0  0  0
  2  1  2  0  0  0  0
  3  2  1  0  0  0  0
  3  4  2  0  0  0  0
  4  5  1  0  0  0  0
  5  6  2  0  0  0  0
  5 16  1  0  0  0  0
  7  8  1  6  0  0  0
  9  7  1  0  0  0  0
 10  9  1  0  0  0  0
 10 11  2  0  0  0  0
 12 14  1  0  0  0  0
 12 10  1  0  0  0  0
 13 11  1  0  0  0  0
 14 13  2  0  0  0  0
 15 12  1  0  0  0  0
 16 17  2  0  0  0  0
 17 19  1  0  0  0  0
 18 16  1  0  0  0  0
 18 20  1  0  0  0  0
 19 22  1  0  0  0  0
 20 19  1  0  0  0  0
 21 18  2  0  0  0  0
 23 20  2  0  0  0  0
 23 26  1  0  0  0  0
 24 21  1  0  0  0  0
 24 25  2  0  0  0  0
 25 23  1  0  0  0  0
 26 28  1  0  0  0  0
 26 27  1  0  0  0  0
 27 29  1  0  0  0  0
 28 30  1  0  0  0  0
 29 30  1  0  0  0  0
 30 31  1  6  0  0  0
 31 32  1  0  0  0  0
 33 35  1  0  0  0  0
 33 24  1  0  0  0  0
 34 33  1  0  0  0  0
 36 33  1  0  0  0  0
M  END
>  <MODEL>
1

>  <REMARK>
 VINA RESULT:    -6.180      0.000      0.000
 INTER + INTRA:          -9.544
 INTER:                  -8.529
 INTRA:                  -1.015
 UNBOUND:                -1.015
 SMILES C[C@@H](Cc1nncn1C)c1cccc(-c2n[nH]c3c(N4CC[C@H](O)C4)cc(C(F)(F)I)nc23)c1
 SMILES IDX 10 1 11 2 12 3 13 4 14 5 34 6 2 7 1 8 3 9 4 10 5 11 8 12
 SMILES IDX 6 13 7 14 9 15 15 16 16 17 33 18 17 19 18 20 32 21 19 23
 SMILES IDX 27 24 26 25 20 26 21 27 25 28 22 29 23 30 24 31 28 33 29 34
 SMILES IDX 30 35 31 36
 H PARENT 17 22 24 32
 Flexibility Score: inf

>  <TORSDO>
F 7

$$$$
WY05
 OpenBabel07182316283D

 36 40  0  0  1  0  0  0  0  0999 V2000
   -0.2790   10.6340   19.9650 C   0  0  0  0  0  0  0  0  0  0  0  0
   -0.4240   10.3330   21.3110 C   0  0  0  0  0  3  0  0  0  0  0  0
    0.3000    9.3210   21.9070 C   0  0  0  0  0  3  0  0  0  0  0  0
    1.1750    8.5970   21.1690 C   0  0  0  0  0  3  0  0  0  0  0  0
    1.3610    8.8490   19.8370 C   0  0  0  0  0  0  0  0  0  0  0  0
    0.6240    9.8720   19.2560 C   0  0  0  0  0  3  0  0  0  0  0  0
   -1.0210   11.7410   19.3270 C   0  0  1  0  0  3  0  0  0  0  0  0
   -0.0280   12.8890   19.1850 C   0  0  0  0  0  1  0  0  0  0  0  0
   -1.6380   11.4100   18.0140 C   0  0  0  0  0  2  0  0  0  0  0  0
   -3.0720   11.7070   17.9520 C   0  0  0  0  0  0  0  0  0  0  0  0
   -3.8120   12.2790   18.8930 N   0  0  0  0  0  0  0  0  0  0  0  0
   -3.8480   11.4700   16.8520 N   0  0  0  0  0  0  0  0  0  0  0  0
   -5.0460   12.3980   18.3840 N   0  0  0  0  0  0  0  0  0  0  0  0
   -5.0620   11.9050   17.1410 C   0  0  0  0  0  3  0  0  0  0  0  0
   -3.3920   10.8880   15.6290 C   0  0  0  0  0  1  0  0  0  0  0  0
    2.3190    8.1000   19.0180 C   0  0  0  0  0  0  0  0  0  0  0  0
    2.9790    8.5770   17.9660 N   0  0  0  0  0  0  0  0  0  0  0  0
    2.7070    6.7860   19.1560 C   0  0  0  0  0  0  0  0  0  0  0  0
    3.7570    7.6170   17.4480 N   0  0  0  0  0  0  0  0  0  0  0  0
    3.6240    6.4750   18.1540 C   0  0  0  0  0  0  0  0  0  0  0  0
    2.3570    5.8220   20.0250 N   0  0  0  0  0  0  0  0  0  0  0  0
    4.3970    7.6500   16.6250 H   0  0  0  0  0  0  0  0  0  0  0  0
    4.1760    5.2220   18.0290 C   0  0  0  0  0  0  0  0  0  0  0  0
    2.8770    4.5800   19.9320 C   0  0  0  0  0  0  0  0  0  0  0  0
    3.7790    4.2660   18.9490 C   0  0  0  0  0  3  0  0  0  0  0  0
    5.1290    4.8820   17.0210 N   0  0  0  0  0  0  0  0  0  0  0  0
    4.9850    4.1830   15.7710 C   0  0  0  0  0  2  0  0  0  0  0  0
    6.5390    5.2580   17.2260 C   0  0  0  0  0  2  0  0  0  0  0  0
    6.3630    3.9210   15.2670 C   0  0  0  0  0  2  0  0  0  0  0  0
    7.3150    4.7490   16.0770 C   0  0  1  0  0  3  0  0  0  0  0  0
    7.8320    5.8440   15.3790 O   0  0  0  0  0  0  0  0  0  0  0  0
    7.8890    6.6350   16.0010 H   0  0  0  0  0  0  0  0  0  0  0  0
    2.4900    3.4690   20.8530 C   0  0  0  0  0  0  0  0  0  0  0  0
    3.3760    2.4180   20.8430 F   0  0  0  0  0  0  0  0  0  0  0  0
    2.3160    3.9570   22.1230 F   0  0  0  0  0  0  0  0  0  0  0  0
    0.8980    2.7900   20.3390 Cl  0  0  0  0  0  0  0  0  0  0  0  0
  1  2  1  0  0  0  0
  2  3  2  0  0  0  0
  4  3  1  0  0  0  0
  5  4  2  0  0  0  0
  6  5  1  0  0  0  0
  6  1  2  0  0  0  0
  7  8  1  6  0  0  0
  7  1  1  0  0  0  0
  9  7  1  0  0  0  0
 10  9  1  0  0  0  0
 10 11  2  0  0  0  0
 12 14  1  0  0  0  0
 12 10  1  0  0  0  0
 13 11  1  0  0  0  0
 14 13  2  0  0  0  0
 15 12  1  0  0  0  0
 16 18  1  0  0  0  0
 16  5  1  0  0  0  0
 17 16  2  0  0  0  0
 18 21  1  0  0  0  0
 19 17  1  0  0  0  0
 19 20  1  0  0  0  0
 20 18  2  0  0  0  0
 22 19  1  0  0  0  0
 23 20  1  0  0  0  0
 23 25  2  0  0  0  0
 24 21  2  0  0  0  0
 24 33  1  0  0  0  0
 25 24  1  0  0  0  0
 26 28  1  0  0  0  0
 26 23  1  0  0  0  0
 27 26  1  0  0  0  0
 29 27  1  0  0  0  0
 29 30  1  0  0  0  0
 30 31  1  6  0  0  0
 30 28  1  0  0  0  0
 31 32  1  0  0  0  0
 33 35  1  0  0  0  0
 34 33  1  0  0  0  0
 36 33  1  0  0  0  0
M  END
>  <MODEL>
1

>  <REMARK>
 VINA RESULT:    -6.017      0.000      0.000
 INTER + INTRA:          -9.480
 INTER:                  -8.303
 INTRA:                  -1.177
 UNBOUND:                -1.177
 SMILES C[C@@H](Cc1nncn1C)c1cccc(-c2n[nH]c3c(N4CC[C@@H](O)C4)cc(C(F)(F)Cl)nc23)c1
 SMILES IDX 10 1 11 2 12 3 13 4 14 5 34 6 2 7 1 8 3 9 4 10 5 11 8 12
 SMILES IDX 6 13 7 14 9 15 15 16 16 17 33 18 17 19 18 20 32 21 19 23
 SMILES IDX 27 24 26 25 20 26 21 27 25 28 22 29 23 30 24 31 28 33 29 34
 SMILES IDX 30 35 31 36
 H PARENT 17 22 24 32
 Flexibility Score: inf

>  <TORSDO>
F 7

$$$$
WY06
 OpenBabel07182316283D

 29 32  0  0  1  0  0  0  0  0999 V2000
    4.5380    4.5380   16.8080 C   0  0  0  0  0  0  0  0  0  0  0  0
    4.0200    5.6750   17.4360 C   0  0  0  0  0  3  0  0  0  0  0  0
    2.9360    5.6870   18.2470 C   0  0  0  0  0  0  0  0  0  0  0  0
    2.3090    4.4490   18.4550 C   0  0  0  0  0  3  0  0  0  0  0  0
    2.7680    3.2930   17.8680 C   0  0  0  0  0  3  0  0  0  0  0  0
    3.8810    3.3560   17.0480 C   0  0  0  0  0  3  0  0  0  0  0  0
    5.7160    4.6350   15.9220 C   0  0  1  0  0  3  0  0  0  0  0  0
    5.6610    5.8440   14.9940 C   0  0  0  0  0  1  0  0  0  0  0  0
    7.2520    4.6260   16.8410 S   0  0  0  0  0  0  0  0  0  0  0  0
    7.6480    6.2570   17.4330 C   0  0  0  0  0  0  0  0  0  0  0  0
    7.6150    7.4480   16.8140 N   0  0  0  0  0  0  0  0  0  0  0  0
    8.0710    6.5110   18.7020 N   0  0  0  0  0  0  0  0  0  0  0  0
    8.0050    8.3990   17.6760 C   0  0  0  0  0  3  0  0  0  0  0  0
    8.2880    7.8090   18.8460 N   0  0  0  0  0  0  0  0  0  0  0  0
    8.3170    5.3650   19.9910 Cl  0  0  0  0  0  0  0  0  0  0  0  0
    2.3660    6.7910   18.9120 N   0  0  0  0  0  0  0  0  0  0  0  0
    2.1470    8.0820   18.3780 C   0  0  0  0  0  0  0  0  0  0  0  0
    2.0470    6.6910   19.9270 H   0  0  0  0  0  0  0  0  0  0  0  0
    2.4790    8.3240   17.1970 O   0  0  0  0  0  0  0  0  0  0  0  0
    1.5320    9.1550   19.1920 C   0  0  0  0  0  0  0  0  0  0  0  0
    1.0260    8.8680   20.4240 C   0  0  0  0  0  3  0  0  0  0  0  0
    1.4730   10.4070   18.7190 N   0  0  0  0  0  0  0  0  0  0  0  0
    0.4600    9.8930   21.1600 C   0  0  0  0  0  0  0  0  0  0  0  0
    0.9330   11.4430   19.3900 C   0  0  0  0  0  3  0  0  0  0  0  0
   -0.0790    9.7070   22.4150 C   0  0  0  0  0  3  0  0  0  0  0  0
    0.4140   11.1770   20.6430 C   0  0  0  0  0  0  0  0  0  0  0  0
   -0.6370   10.7450   23.1270 C   0  0  0  0  0  3  0  0  0  0  0  0
   -0.1380   12.2280   21.3350 C   0  0  0  0  0  3  0  0  0  0  0  0
   -0.6700   12.0180   22.5880 C   0  0  0  0  0  3  0  0  0  0  0  0
  1  6  2  0  0  0  0
  1  2  1  0  0  0  0
  2  3  2  0  0  0  0
  3  4  1  0  0  0  0
  3 16  1  0  0  0  0
  5  4  2  0  0  0  0
  6  5  1  0  0  0  0
  7  8  1  1  0  0  0
  7  1  1  0  0  0  0
  7  9  1  0  0  0  0
  9 10  1  0  0  0  0
 10 12  1  0  0  0  0
 11 10  2  0  0  0  0
 11 13  1  0  0  0  0
 12 14  1  0  0  0  0
 12 15  1  0  0  0  0
 13 14  2  0  0  0  0
 16 18  1  0  0  0  0
 17 16  1  0  0  0  0
 17 20  1  0  0  0  0
 19 17  2  0  0  0  0
 20 21  1  0  0  0  0
 21 23  2  0  0  0  0
 22 20  2  0  0  0  0
 22 24  1  0  0  0  0
 23 25  1  0  0  0  0
 24 26  2  0  0  0  0
 25 27  2  0  0  0  0
 26 23  1  0  0  0  0
 26 28  1  0  0  0  0
 28 29  2  0  0  0  0
 29 27  1  0  0  0  0
M  END
>  <MODEL>
1

>  <REMARK>
 VINA RESULT:    -6.382      0.000      0.000
 INTER + INTRA:          -8.564
 INTER:                  -8.247
 INTRA:                  -0.317
 UNBOUND:                -0.317
 SMILES C[C@@H](Sc1ncnn1Cl)c1cccc(NC(=O)c2cc3ccccc3cn2)c1
 SMILES IDX 10 1 28 2 14 3 13 4 12 5 11 6 2 7 1 8 3 9 4 10 5 11 8 12
 SMILES IDX 6 13 7 14 9 15 15 16 16 17 17 19 18 20 19 21 27 22 20 23
 SMILES IDX 26 24 21 25 25 26 22 27 24 28 23 29
 H PARENT 15 18
 Flexibility Score: inf

>  <TORSDO>
F 5

$$$$
WY07
 OpenBabel07182316283D

 36 40  0  0  1  0  0  0  0  0999 V2000
    3.8480    5.0640   18.1260 C   0  0  0  0  0  0  0  0  0  0  0  0
    3.3460    6.3740   18.1640 C   0  0  0  0  0  3  0  0  0  0  0  0
    2.5880    6.8410   19.2040 C   0  0  0  0  0  0  0  0  0  0  0  0
    2.3210    5.9610   20.2490 C   0  0  0  0  0  3  0  0  0  0  0  0
    2.8040    4.6740   20.2310 C   0  0  0  0  0  3  0  0  0  0  0  0
    3.5760    4.2060   19.1680 C   0  0  0  0  0  3  0  0  0  0  0  0
    4.6700    4.5560   16.9990 C   0  0  2  0  0  3  0  0  0  0  0  0
    4.1280    3.2130   16.5600 C   0  0  0  0  0  1  0  0  0  0  0  0
    6.0980    4.4320   17.4870 C   0  0  0  0  0  2  0  0  0  0  0  0
    6.7560    5.7490   17.4730 C   0  0  0  0  0  0  0  0  0  0  0  0
    6.6440    6.6690   16.5080 N   0  0  0  0  0  0  0  0  0  0  0  0
    7.5740    6.2790   18.3950 N   0  0  0  0  0  0  0  0  0  0  0  0
    7.3560    7.7430   16.7940 N   0  0  0  0  0  0  0  0  0  0  0  0
    7.9470    7.5130   17.9750 C   0  0  0  0  0  3  0  0  0  0  0  0
    8.0290    5.6990   19.6430 C   0  0  0  0  0  1  0  0  0  0  0  0
    2.0740    8.1410   19.2860 N   0  0  0  0  0  0  0  0  0  0  0  0
    1.8080    9.0500   18.2470 C   0  0  0  0  0  0  0  0  0  0  0  0
    1.8480    8.5060   20.2600 H   0  0  0  0  0  0  0  0  0  0  0  0
    2.0550    8.6830   17.0560 O   0  0  0  0  0  0  0  0  0  0  0  0
    1.2680   10.3930   18.4030 C   0  0  0  0  0  0  0  0  0  0  0  0
    2.0250   11.4600   18.0510 N   0  0  0  0  0  0  0  0  0  0  0  0
    0.0210   10.6390   18.8920 C   0  0  0  0  0  3  0  0  0  0  0  0
    1.5460   12.7010   18.1860 C   0  0  0  0  0  3  0  0  0  0  0  0
   -0.5270   11.9380   19.0520 C   0  0  0  0  0  0  0  0  0  0  0  0
    0.2620   12.9680   18.6890 C   0  0  0  0  0  3  0  0  0  0  0  0
   -1.8560   12.0220   19.6010 C   0  0  0  0  0  0  0  0  0  0  0  0
   -1.9710   12.0670   20.8940 O   0  0  0  0  0  0  0  0  0  0  0  0
   -3.0580   12.0610   18.8690 N   0  0  0  0  0  0  0  0  0  0  0  0
   -3.4290   11.4480   17.6370 C   0  0  0  0  0  2  0  0  0  0  0  0
   -4.2050   12.8500   19.4250 C   0  0  0  0  0  2  0  0  0  0  0  0
   -4.7750   12.1250   17.2950 C   0  0  0  0  0  2  0  0  0  0  0  0
   -5.3570   12.2950   18.6510 C   0  0  1  0  0  0  0  0  0  0  0  0
   -6.1180   11.1720   19.2460 C   0  0  0  0  0  2  0  0  0  0  0  0
   -6.6370   13.0550   18.7070 C   0  0  2  0  0  3  0  0  0  0  0  0
   -7.1360   12.0920   19.5890 O   0  0  0  0  0  0  0  0  0  0  0  0
   -7.5120   12.9270   17.1460 Cl  0  0  0  0  0  0  0  0  0  0  0  0
  1  2  2  0  0  0  0
  1  6  1  0  0  0  0
  2  3  1  0  0  0  0
  3 16  1  0  0  0  0
  3  4  2  0  0  0  0
  5  4  1  0  0  0  0
  6  5  2  0  0  0  0
  7  8  1  1  0  0  0
  7  9  1  0  0  0  0
  7  1  1  0  0  0  0
 10  9  1  0  0  0  0
 10 12  1  0  0  0  0
 11 13  1  0  0  0  0
 11 10  2  0  0  0  0
 12 15  1  0  0  0  0
 13 14  2  0  0  0  0
 14 12  1  0  0  0  0
 16 18  1  0  0  0  0
 17 20  1  0  0  0  0
 17 16  1  0  0  0  0
 19 17  2  0  0  0  0
 20 22  1  0  0  0  0
 21 23  1  0  0  0  0
 21 20  2  0  0  0  0
 22 24  2  0  0  0  0
 23 25  2  0  0  0  0
 24 26  1  0  0  0  0
 25 24  1  0  0  0  0
 26 27  2  0  0  0  0
 28 30  1  0  0  0  0
 28 26  1  0  0  0  0
 29 28  1  0  0  0  0
 31 29  1  0  0  0  0
 32 31  1  6  0  0  0
 32 34  1  0  0  0  0
 32 33  1  0  0  0  0
 32 30  1  0  0  0  0
 33 35  1  0  0  0  0
 34 36  1  6  0  0  0
 34 35  1  0  0  0  0
M  END
>  <MODEL>
1

>  <REMARK>
 VINA RESULT:    -6.458      0.000      0.000
 INTER + INTRA:          -9.976
 INTER:                  -9.101
 INTRA:                  -0.876
 UNBOUND:                -0.876
 SMILES C[C@H](Cc1nncn1C)c1cccc(NC(=O)c2cc(C(=O)N3CC[C@@]4(CO[C@@H]4Cl)C3)ccn2)c1
 SMILES IDX 10 1 35 2 14 3 13 4 12 5 11 6 2 7 1 8 3 9 4 10 5 11 8 12
 SMILES IDX 6 13 7 14 9 15 15 16 16 17 17 19 18 20 34 21 19 22 33 23
 SMILES IDX 20 24 32 25 21 26 22 27 23 28 24 29 31 30 25 31 26 32 27 33
 SMILES IDX 29 34 28 35 30 36
 H PARENT 15 18
 Flexibility Score: inf

>  <TORSDO>
F 7

$$$$
WY08
 OpenBabel07182316283D

 32 35  0  0  1  0  0  0  0  0999 V2000
   -1.1010   11.4850   18.2640 C   0  0  0  0  0  0  0  0  0  0  0  0
   -0.2730   10.4390   17.9790 C   0  0  0  0  0  3  0  0  0  0  0  0
    1.1040   10.4350   18.2310 C   0  0  0  0  0  0  0  0  0  0  0  0
    1.6010   11.5770   18.7980 C   0  0  0  0  0  3  0  0  0  0  0  0
    0.7550   12.6590   19.0950 C   0  0  0  0  0  3  0  0  0  0  0  0
   -0.5860   12.6190   18.8310 C   0  0  0  0  0  3  0  0  0  0  0  0
   -2.5360   11.3340   17.9130 C   0  0  2  0  0  3  0  0  0  0  0  0
   -3.6900   11.9470   19.1050 S   0  0  0  0  0  0  0  0  0  0  0  0
   -5.2380   12.4630   18.4390 C   0  0  0  0  0  0  0  0  0  0  0  0
   -6.6510   10.4410   18.9670 C   0  0  0  0  0  1  0  0  0  0  0  0
   -6.3780   11.7650   18.4480 N   0  0  0  0  0  0  0  0  0  0  0  0
   -7.3290   12.5210   17.8580 C   0  0  0  0  0  3  0  0  0  0  0  0
   -6.7620   13.6800   17.4910 N   0  0  0  0  0  0  0  0  0  0  0  0
   -5.5000   13.6300   17.8480 N   0  0  0  0  0  0  0  0  0  0  0  0
   -2.8380    9.9200   17.4430 C   0  0  0  0  0  2  0  0  0  0  0  0
   -2.8720    9.9150   15.9630 C   0  0  0  0  0  3  0  0  0  0  0  0
   -3.5070   10.8820   15.3300 C   0  0  0  0  0  2  0  0  0  0  0  0
    1.8760    9.2920   17.9090 N   0  0  0  0  0  0  0  0  0  0  0  0
    2.2570    8.2520   18.7630 C   0  0  0  0  0  0  0  0  0  0  0  0
    2.2100    9.2060   16.8920 H   0  0  0  0  0  0  0  0  0  0  0  0
    1.9150    8.2670   19.9660 O   0  0  0  0  0  0  0  0  0  0  0  0
    3.0610    7.1470   18.2220 C   0  0  0  0  0  0  0  0  0  0  0  0
    3.8580    7.2620   17.1490 N   0  0  0  0  0  0  0  0  0  0  0  0
    2.9810    5.9310   18.8600 C   0  0  0  0  0  0  0  0  0  0  0  0
    4.5800    6.1970   16.6910 C   0  0  0  0  0  0  0  0  0  0  0  0
    3.7150    4.8280   18.4060 C   0  0  0  0  0  3  0  0  0  0  0  0
    1.9740    5.6590   20.2710 Cl  0  0  0  0  0  0  0  0  0  0  0  0
    5.3980    6.3180   15.5870 C   0  0  0  0  0  3  0  0  0  0  0  0
    4.5180    4.9720   17.3120 C   0  0  0  0  0  0  0  0  0  0  0  0
    6.1100    5.2450   15.1470 C   0  0  0  0  0  3  0  0  0  0  0  0
    5.2480    3.8670   16.8610 C   0  0  0  0  0  3  0  0  0  0  0  0
    6.0470    4.0140   15.7710 C   0  0  0  0  0  3  0  0  0  0  0  0
  1  6  1  0  0  0  0
  2  3  1  0  0  0  0
  2  1  2  0  0  0  0
  3  4  2  0  0  0  0
  4  5  1  0  0  0  0
  6  5  2  0  0  0  0
  7 15  1  1  0  0  0
  7  1  1  0  0  0  0
  7  8  1  0  0  0  0
  9 11  1  0  0  0  0
  9  8  1  0  0  0  0
 11 10  1  0  0  0  0
 12 11  1  0  0  0  0
 13 14  1  0  0  0  0
 13 12  2  0  0  0  0
 14  9  2  0  0  0  0
 16 15  1  0  0  0  0
 17 16  2  0  0  0  0
 18  3  1  0  0  0  0
 18 19  1  0  0  0  0
 19 21  2  0  0  0  0
 20 18  1  0  0  0  0
 22 19  1  0  0  0  0
 22 24  1  0  0  0  0
 23 22  2  0  0  0  0
 24 27  1  0  0  0  0
 25 23  1  0  0  0  0
 25 29  1  0  0  0  0
 26 24  2  0  0  0  0
 28 25  2  0  0  0  0
 29 26  1  0  0  0  0
 30 28  1  0  0  0  0
 30 32  2  0  0  0  0
 31 29  2  0  0  0  0
 32 31  1  0  0  0  0
M  END
>  <MODEL>
1

>  <REMARK>
 VINA RESULT:    -6.110      0.000      0.000
 INTER + INTRA:          -9.059
 INTER:                  -8.611
 INTRA:                  -0.448
 UNBOUND:                -0.448
 SMILES C=CC[C@@H](Sc1nncn1C)c1cccc(NC(=O)c2nc3ccccc3cc2Cl)c1
 SMILES IDX 12 1 31 2 16 3 15 4 14 5 13 6 4 7 5 8 6 9 11 10 10 11 9 12
 SMILES IDX 8 13 7 14 3 15 2 16 1 17 17 18 18 19 19 21 20 22 21 23 29 24
 SMILES IDX 22 25 28 26 30 27 23 28 27 29 24 30 26 31 25 32
 H PARENT 17 20
 Flexibility Score: inf

>  <TORSDO>
F 7

$$$$
WY09
 OpenBabel07182316283D

 26 29  0  0  1  0  0  0  0  0999 V2000
    5.2160    5.8880   15.5000 C   0  0  0  0  0  1  0  0  0  0  0  0
    5.4460    4.6690   16.3820 C   0  0  1  0  0  3  0  0  0  0  0  0
    6.8860    4.6440   16.8140 C   0  0  0  0  0  2  0  0  0  0  0  0
    7.3620    6.0010   17.2130 C   0  0  0  0  0  0  0  0  0  0  0  0
    7.4620    7.1130   16.4640 N   0  0  0  0  0  0  0  0  0  0  0  0
    7.7830    6.3050   18.4530 N   0  0  0  0  0  0  0  0  0  0  0  0
    7.9340    8.0790   17.2320 N   0  0  0  0  0  0  0  0  0  0  0  0
    8.1380    7.6080   18.4570 C   0  0  0  0  0  3  0  0  0  0  0  0
    7.8500    5.4120   19.5940 C   0  0  0  0  0  1  0  0  0  0  0  0
    4.5700    4.8240   17.5640 C   0  0  0  0  0  0  0  0  0  0  0  0
    3.9050    6.0310   17.7840 C   0  0  0  0  0  3  0  0  0  0  0  0
    4.4020    3.7800   18.4570 C   0  0  0  0  0  3  0  0  0  0  0  0
    3.0810    6.2100   18.8760 C   0  0  0  0  0  0  0  0  0  0  0  0
    3.5790    3.9340   19.5620 C   0  0  0  0  0  3  0  0  0  0  0  0
    2.9430    5.1400   19.7420 C   0  0  0  0  0  3  0  0  0  0  0  0
    2.3860    7.4520   19.1190 N   0  0  0  0  0  0  0  0  0  0  0  0
    1.7820    7.8500   20.3710 C   0  0  0  0  0  2  0  0  0  0  0  0
    2.1620    8.5020   18.1930 C   0  0  0  0  0  0  0  0  0  0  0  0
    1.2020    9.1850   20.1170 C   0  0  0  0  0  0  0  0  0  0  0  0
    1.4200    9.5910   18.8170 C   0  0  0  0  0  0  0  0  0  0  0  0
    2.5550    8.4970   16.9850 O   0  0  0  0  0  0  0  0  0  0  0  0
    0.5010   10.0710   20.9280 C   0  0  0  0  0  0  0  0  0  0  0  0
    0.9610   10.8170   18.3500 C   0  0  0  0  0  3  0  0  0  0  0  0
    0.0400   11.2890   20.4790 C   0  0  0  0  0  3  0  0  0  0  0  0
    0.1010    9.5680   22.9440 I   0  0  0  0  0  0  0  0  0  0  0  0
    0.2680   11.6770   19.1760 C   0  0  0  0  0  3  0  0  0  0  0  0
  2  1  1  6  0  0  0
  2  3  1  0  0  0  0
  2 10  1  0  0  0  0
  3  4  1  0  0  0  0
  4  6  1  0  0  0  0
  5  4  2  0  0  0  0
  5  7  1  0  0  0  0
  6  8  1  0  0  0  0
  6  9  1  0  0  0  0
  7  8  2  0  0  0  0
 10 11  2  0  0  0  0
 10 12  1  0  0  0  0
 11 13  1  0  0  0  0
 12 14  2  0  0  0  0
 13 16  1  0  0  0  0
 13 15  2  0  0  0  0
 14 15  1  0  0  0  0
 16 17  1  0  0  0  0
 18 20  1  0  0  0  0
 18 16  1  0  0  0  0
 19 17  1  0  0  0  0
 19 22  1  0  0  0  0
 20 19  2  0  0  0  0
 21 18  2  0  0  0  0
 22 25  1  0  0  0  0
 23 20  1  0  0  0  0
 23 26  2  0  0  0  0
 24 22  2  0  0  0  0
 26 24  1  0  0  0  0
M  END
>  <MODEL>
1

>  <REMARK>
 VINA RESULT:    -6.333      0.000      0.000
 INTER + INTRA:          -8.071
 INTER:                  -7.814
 INTRA:                  -0.257
 UNBOUND:                -0.257
 SMILES C[C@@H](Cc1nncn1C)c1cccc(N2Cc3c(I)cccc3C2=O)c1
 SMILES IDX 1 1 2 2 3 3 4 4 5 5 8 6 6 7 7 8 9 9 10 10 26 11 11 12 14 13
 SMILES IDX 12 14 13 15 15 16 16 17 24 18 17 19 23 20 25 21 18 22 22 23
 SMILES IDX 20 24 19 25 21 26
 H PARENT
 Flexibility Score: inf

>  <TORSDO>
F 4

$$$$
WY10
 OpenBabel07182316283D

 33 36  0  0  1  0  0  0  0  0999 V2000
    4.6640    4.4290   17.6320 C   0  0  0  0  0  0  0  0  0  0  0  0
    4.4090    3.4240   18.5420 C   0  0  0  0  0  3  0  0  0  0  0  0
    3.5640    3.6220   19.5930 C   0  0  0  0  0  3  0  0  0  0  0  0
    2.9550    4.8620   19.7400 C   0  0  0  0  0  3  0  0  0  0  0  0
    3.2160    5.8620   18.8270 C   0  0  0  0  0  0  0  0  0  0  0  0
    4.0670    5.6700   17.7650 C   0  0  0  0  0  3  0  0  0  0  0  0
    5.5990    4.1660   16.4900 C   0  0  1  0  0  3  0  0  0  0  0  0
    5.3480    5.1090   15.3420 C   0  0  0  0  0  1  0  0  0  0  0  0
    7.3130    4.3930   17.0430 S   0  0  0  0  0  0  0  0  0  0  0  0
    7.6280    6.0940   17.4390 C   0  0  0  0  0  0  0  0  0  0  0  0
    7.5280    7.1180   16.5870 N   0  0  0  0  0  0  0  0  0  0  0  0
    8.0060    6.5920   18.6210 N   0  0  0  0  0  0  0  0  0  0  0  0
    7.8370    8.2210   17.2320 N   0  0  0  0  0  0  0  0  0  0  0  0
    8.1440    7.9410   18.5100 C   0  0  0  0  0  3  0  0  0  0  0  0
    8.2280    5.8750   19.7820 N   0  0  0  0  0  0  0  0  0  0  0  0
    9.1970    5.6860   20.1060 H   0  0  0  0  0  0  0  0  0  0  0  0
    7.4550    5.4970   20.3730 H   0  0  0  0  0  0  0  0  0  0  0  0
    2.5840    7.1820   18.9580 C   0  0  0  0  0  0  0  0  0  0  0  0
    1.8550    7.6110   20.0510 C   0  0  0  0  0  3  0  0  0  0  0  0
    2.5930    8.1660   18.0930 O   0  0  0  0  0  0  0  0  0  0  0  0
    1.4440    8.8930   19.7720 C   0  0  0  0  0  0  0  0  0  0  0  0
    1.9200    9.1950   18.5570 N   0  0  0  0  0  0  0  0  0  0  0  0
    0.6340    9.7350   20.6650 C   0  0  0  0  0  0  0  0  0  0  0  0
    0.3970    9.3780   21.9740 C   0  0  0  0  0  3  0  0  0  0  0  0
    0.0830   10.9170   20.2210 C   0  0  0  0  0  3  0  0  0  0  0  0
   -0.3730   10.1820   22.8220 C   0  0  0  0  0  3  0  0  0  0  0  0
   -0.6740   11.7030   21.0640 C   0  0  0  0  0  3  0  0  0  0  0  0
   -0.9250   11.3650   22.3770 C   0  0  0  0  0  0  0  0  0  0  0  0
   -1.7280   12.2280   23.2330 C   0  0  0  0  0  0  0  0  0  0  0  0
   -1.1670   13.2810   23.6830 O   0  0  0  0  0  0  0  0  0  0  0  0
   -3.0750   11.9490   23.5760 N   0  0  0  0  0  0  0  0  0  0  0  0
   -3.7770   12.8930   24.4440 C   0  0  0  0  0  1  0  0  0  0  0  0
   -3.5460   11.0970   23.2200 H   0  0  0  0  0  0  0  0  0  0  0  0
  1  6  2  0  0  0  0
  1  2  1  0  0  0  0
  2  3  2  0  0  0  0
  3  4  1  0  0  0  0
  5 18  1  0  0  0  0
  5  4  2  0  0  0  0
  6  5  1  0  0  0  0
  7  8  1  6  0  0  0
  7  9  1  0  0  0  0
  7  1  1  0  0  0  0
  9 10  1  0  0  0  0
 10 12  1  0  0  0  0
 11 13  1  0  0  0  0
 11 10  2  0  0  0  0
 12 15  1  0  0  0  0
 13 14  2  0  0  0  0
 14 12  1  0  0  0  0
 15 16  1  0  0  0  0
 15 17  1  0  0  0  0
 18 19  2  0  0  0  0
 20 22  1  0  0  0  0
 20 18  1  0  0  0  0
 21 19  1  0  0  0  0
 21 23  1  0  0  0  0
 22 21  2  0  0  0  0
 23 24  1  0  0  0  0
 24 26  2  0  0  0  0
 25 23  2  0  0  0  0
 25 27  1  0  0  0  0
 27 28  2  0  0  0  0
 28 26  1  0  0  0  0
 28 29  1  0  0  0  0
 29 31  1  0  0  0  0
 29 30  2  0  0  0  0
 31 32  1  0  0  0  0
 33 31  1  0  0  0  0
M  END
>  <MODEL>
1

>  <REMARK>
 VINA RESULT:    -6.472      0.000      0.000
 INTER + INTRA:          -9.957
 INTER:                  -8.932
 INTRA:                  -1.025
 UNBOUND:                -1.025
 SMILES CNC(=O)c1ccc(-c2cc(-c3cccc([C@@H](C)Sc4nncn4N)c3)on2)cc1
 SMILES IDX 16 1 15 2 14 3 13 4 12 5 26 6 17 7 18 8 19 9 20 10 21 11
 SMILES IDX 24 12 22 13 23 14 25 15 11 18 10 19 27 20 9 21 28 22 8 23
 SMILES IDX 7 24 29 25 6 26 30 27 5 28 3 29 4 30 2 31 1 32
 H PARENT 25 16 25 17 2 33
 Flexibility Score: inf

>  <TORSDO>
F 7

$$$$
PC01
 OpenBabel07182316283D

 31 35  0  0  0  0  0  0  0  0999 V2000
    0.6980    9.9380   18.8390 C   0  0  0  0  0  0  0  0  0  0  0  0
    0.3460   10.9160   19.7450 C   0  0  0  0  0  3  0  0  0  0  0  0
   -0.8760   11.5610   19.6560 C   0  0  0  0  0  3  0  0  0  0  0  0
   -1.7960   11.2670   18.6700 C   0  0  0  0  0  0  0  0  0  0  0  0
   -3.0140   11.9060   18.5760 C   0  0  0  0  0  3  0  0  0  0  0  0
   -3.9550   11.6150   17.5810 C   0  0  0  0  0  0  0  0  0  0  0  0
   -3.6020   10.6400   16.6790 C   0  0  0  0  0  3  0  0  0  0  0  0
   -2.3640    9.9910   16.7760 C   0  0  0  0  0  3  0  0  0  0  0  0
   -1.4490   10.2900   17.7620 C   0  0  0  0  0  0  0  0  0  0  0  0
   -0.2260    9.6470   17.8540 C   0  0  0  0  0  3  0  0  0  0  0  0
    1.9180    9.2680   18.8950 O   0  0  0  0  0  0  0  0  0  0  0  0
    2.5200    8.5920   17.8450 C   0  0  0  0  0  2  0  0  0  0  0  0
    2.8360    7.2030   18.2700 C   0  0  0  0  0  0  0  0  0  0  0  0
    1.4440    2.8740   22.1750 F   0  0  0  0  0  0  0  0  0  0  0  0
    2.1430    3.4130   21.1270 C   0  0  0  0  0  0  0  0  0  0  0  0
    3.1220    2.6800   20.4900 C   0  0  0  0  0  3  0  0  0  0  0  0
    1.8510    4.7020   20.7190 C   0  0  0  0  0  3  0  0  0  0  0  0
    3.7880    3.2830   19.4420 C   0  0  0  0  0  3  0  0  0  0  0  0
    2.5140    5.3130   19.6690 C   0  0  0  0  0  0  0  0  0  0  0  0
    3.4940    4.5770   19.0350 C   0  0  0  0  0  0  0  0  0  0  0  0
    2.2180    6.5680   19.2840 N   0  0  0  0  0  0  0  0  0  0  0  0
    4.1540    5.1840   17.9900 C   0  0  0  0  0  3  0  0  0  0  0  0
    3.8320    6.4710   17.6160 C   0  0  0  0  0  3  0  0  0  0  0  0
   -5.2430   12.3430   17.5990 C   0  0  0  0  0  2  0  0  0  0  0  0
   -5.8180   12.5820   18.9280 C   0  0  0  0  0  2  0  0  0  0  0  0
   -6.5980   11.4710   19.4700 C   0  0  0  0  0  0  0  0  0  0  0  0
   -6.7650   11.2100   20.8000 N   0  0  0  0  0  0  0  0  0  0  0  0
   -7.2840   10.5070   18.8580 N   0  0  0  0  0  2  0  0  0  0  0  0
   -7.5100   10.1510   20.9180 N   0  0  0  0  0  2  0  0  0  0  0  0
   -7.8330    9.7120   19.7260 N   0  0  0  0  0  0  0  0  0  0  0  0
   -8.4410    8.8520   19.5690 H   0  0  0  0  0  0  0  0  0  0  0  0
  1 11  1  0  0  0  0
  1  2  1  0  0  0  0
  3  2  2  0  0  0  0
  4  3  1  0  0  0  0
  5  4  1  0  0  0  0
  6 24  1  0  0  0  0
  6  5  2  0  0  0  0
  7  8  2  0  0  0  0
  7  6  1  0  0  0  0
  8  9  1  0  0  0  0
  9 10  1  0  0  0  0
  9  4  2  0  0  0  0
 10  1  2  0  0  0  0
 12 13  1  0  0  0  0
 12 11  1  0  0  0  0
 13 21  1  0  0  0  0
 15 14  1  0  0  0  0
 16 15  1  0  0  0  0
 17 15  2  0  0  0  0
 18 16  2  0  0  0  0
 19 17  1  0  0  0  0
 20 18  1  0  0  0  0
 20 19  1  0  0  0  0
 21 19  2  0  0  0  0
 22 20  2  0  0  0  0
 23 22  1  0  0  0  0
 23 13  2  0  0  0  0
 24 25  1  0  0  0  0
 25 26  1  0  0  0  0
 26 27  2  0  0  0  0
 27 29  1  0  0  0  0
 28 26  1  0  0  0  0
 28 30  1  0  0  0  0
 30 29  1  0  0  0  0
 31 30  1  0  0  0  0
M  END
>  <MODEL>
1

>  <REMARK>
 VINA RESULT:    -7.552      0.000      0.000
 INTER + INTRA:         -10.921
 INTER:                 -10.201
 INTRA:                  -0.720
 UNBOUND:                -0.720
 SMILES Fc1ccc2ccc(COc3ccc4cc(CCc5nn[nH]n5)ccc4c3)nc2c1
 SMILES IDX 11 1 12 2 13 3 14 4 15 5 16 6 24 7 25 8 26 9 27 10 10 11
 SMILES IDX 9 12 8 13 1 14 2 15 3 16 30 17 4 18 29 19 5 20 28 21 6 22
 SMILES IDX 7 23 17 24 18 25 19 26 20 27 23 28 21 29 22 30
 H PARENT 22 31
 Flexibility Score: inf

>  <TORSDO>
F 6

$$$$
PC02
 OpenBabel07182316283D

 25 27  0  0  1  0  0  0  0  0999 V2000
    2.8690    7.5390   17.9710 C   0  0  0  0  0  0  0  0  0  0  0  0
    3.4030    7.8820   16.8840 O   0  0  0  0  0  0  0  0  0  0  0  0
    3.1010    6.2160   18.4320 N   0  0  0  0  0  0  0  0  0  0  0  0
    2.5320    5.7200   19.6720 C   0  0  0  0  0  2  0  0  0  0  0  0
    2.9750    4.2620   19.8050 C   0  0  0  0  0  2  0  0  0  0  0  0
    2.4910    3.5520   18.5610 C   0  0  2  0  0  0  0  0  0  0  0  0
    3.0800    4.1020   17.2990 C   0  0  0  0  0  2  0  0  0  0  0  0
    3.9370    5.2990   17.6570 C   0  0  0  0  0  2  0  0  0  0  0  0
    2.0400    8.4380   18.7540 C   0  0  0  0  0  0  0  0  0  0  0  0
   -1.3660   11.8470   23.0130 C   0  0  0  0  0  1  0  0  0  0  0  0
   -0.4980   10.8910   22.2480 C   0  0  0  0  0  0  0  0  0  0  0  0
    0.1440    9.8560   22.8930 C   0  0  0  0  0  3  0  0  0  0  0  0
   -0.3270   11.0300   20.8870 C   0  0  0  0  0  3  0  0  0  0  0  0
    0.9330    8.9990   22.1560 C   0  0  0  0  0  3  0  0  0  0  0  0
    0.4560   10.1870   20.1270 C   0  0  0  0  0  0  0  0  0  0  0  0
    1.1000    9.1480   20.7800 C   0  0  0  0  0  0  0  0  0  0  0  0
    0.5950   10.3700   18.7620 C   0  0  0  0  0  3  0  0  0  0  0  0
    1.8740    8.3030   20.0750 N   0  0  0  0  0  0  0  0  0  0  0  0
    1.3970    9.4820   18.0770 C   0  0  0  0  0  3  0  0  0  0  0  0
    1.1010    3.7480   18.5320 O   0  0  0  0  0  0  0  0  0  0  0  0
    0.6930    3.4190   17.7000 H   0  0  0  0  0  0  0  0  0  0  0  0
    2.7620    2.0630   18.6340 C   0  0  0  0  0  0  0  0  0  0  0  0
    1.6650    1.4670   19.2520 F   0  0  0  0  0  0  0  0  0  0  0  0
    2.9010    1.5990   17.3470 F   0  0  0  0  0  0  0  0  0  0  0  0
    3.9270    1.8290   19.3190 F   0  0  0  0  0  0  0  0  0  0  0  0
  1  3  1  0  0  0  0
  1  9  1  0  0  0  0
  2  1  2  0  0  0  0
  3  4  1  0  0  0  0
  4  5  1  0  0  0  0
  6 20  1  6  0  0  0
  6 22  1  0  0  0  0
  6  5  1  0  0  0  0
  7  8  1  0  0  0  0
  7  6  1  0  0  0  0
  8  3  1  0  0  0  0
  9 18  1  0  0  0  0
 11 12  1  0  0  0  0
 11 10  1  0  0  0  0
 13 11  2  0  0  0  0
 14 12  2  0  0  0  0
 15 16  1  0  0  0  0
 15 13  1  0  0  0  0
 16 14  1  0  0  0  0
 17 15  2  0  0  0  0
 18 16  2  0  0  0  0
 19  9  2  0  0  0  0
 19 17  1  0  0  0  0
 21 20  1  0  0  0  0
 22 23  1  0  0  0  0
 22 25  1  0  0  0  0
 24 22  1  0  0  0  0
M  END
>  <MODEL>
1

>  <REMARK>
 VINA RESULT:    -5.780      0.000      0.000
 INTER + INTRA:          -6.259
 INTER:                  -6.625
 INTRA:                   0.366
 UNBOUND:                 0.366
 SMILES Cc1ccc2nc(C(=O)N3CCC(O)(C(F)(F)F)CC3)ccc2c1
 SMILES IDX 8 1 9 2 10 3 11 4 12 5 13 6 19 7 20 8 7 9 1 10 2 11 3 12
 SMILES IDX 24 13 4 14 23 15 5 16 22 17 6 18 21 19 14 20 15 22 16 23
 SMILES IDX 17 24 18 25
 H PARENT 14 21
 Flexibility Score: inf

>  <TORSDO>
F 3

$$$$
PC03
 OpenBabel07182316283D

 28 31  0  0  0  0  0  0  0  0999 V2000
   -4.8310   14.5530   21.7690 N   0  0  0  0  0  0  0  0  0  0  0  0
   -4.4680   14.9100   23.0900 C   0  0  0  0  0  2  0  0  0  0  0  0
   -2.9930   15.1900   23.1740 C   0  0  0  0  0  2  0  0  0  0  0  0
   -2.2370   14.7950   22.0050 N   0  0  0  0  0  0  0  0  0  0  0  0
   -0.9360   14.2820   22.2080 C   0  0  0  0  0  0  0  0  0  0  0  0
   -0.4530   14.1690   23.3720 O   0  0  0  0  0  0  0  0  0  0  0  0
   -2.7720   14.9140   20.6650 C   0  0  0  0  0  2  0  0  0  0  0  0
   -4.2230   15.4120   20.8140 C   0  0  0  0  0  2  0  0  0  0  0  0
   -4.8650   12.9020   21.3980 S   0  0  0  0  0  0  0  0  0  0  0  0
   -6.1570   12.3300   21.9700 O   0  0  0  0  0  0  0  0  0  0  0  0
   -3.7540   12.2170   22.1370 O   0  0  0  0  0  0  0  0  0  0  0  0
   -4.8590   12.5620   19.7020 C   0  0  0  0  0  0  0  0  0  0  0  0
   -2.6200   10.9790   17.1150 C   0  0  0  0  0  1  0  0  0  0  0  0
   -3.7940   11.6650   17.7360 C   0  0  0  0  0  0  0  0  0  0  0  0
   -4.8940   12.0450   16.9890 C   0  0  0  0  0  3  0  0  0  0  0  0
   -3.7810   11.9230   19.0760 C   0  0  0  0  0  3  0  0  0  0  0  0
   -5.9450   12.6710   17.6120 C   0  0  0  0  0  3  0  0  0  0  0  0
   -5.9610   12.9450   18.9640 C   0  0  0  0  0  0  0  0  0  0  0  0
   -7.1020   13.6170   19.5910 C   0  0  0  0  0  1  0  0  0  0  0  0
   -0.0860   13.8580   21.1080 C   0  0  0  0  0  0  0  0  0  0  0  0
    0.0240   12.6330   20.5110 C   0  0  0  0  0  3  0  0  0  0  0  0
    1.0730   14.8520   20.2250 S   0  0  0  0  0  0  0  0  0  0  0  0
    0.8950   12.4910   19.5020 C   0  0  0  0  0  0  0  0  0  0  0  0
    1.6360   13.5560   19.1050 C   0  0  0  0  0  0  0  0  0  0  0  0
    1.3250   11.4570   18.6290 C   0  0  0  0  0  0  0  0  0  0  0  0
    2.4410   13.2580   18.1070 O   0  0  0  0  0  0  0  0  0  0  0  0
    0.8820   10.0500   18.5670 C   0  0  0  0  0  1  0  0  0  0  0  0
    2.2540   11.9870   17.8170 N   0  0  0  0  0  0  0  0  0  0  0  0
  1  2  1  0  0  0  0
  2  3  1  0  0  0  0
  4  5  1  0  0  0  0
  4  3  1  0  0  0  0
  5  6  2  0  0  0  0
  7  8  1  0  0  0  0
  7  4  1  0  0  0  0
  8  1  1  0  0  0  0
  9  1  1  0  0  0  0
  9 10  2  0  0  0  0
  9 11  2  0  0  0  0
 12  9  1  0  0  0  0
 13 14  1  0  0  0  0
 14 16  2  0  0  0  0
 15 17  2  0  0  0  0
 15 14  1  0  0  0  0
 16 12  1  0  0  0  0
 17 18  1  0  0  0  0
 18 19  1  0  0  0  0
 18 12  2  0  0  0  0
 20  5  1  0  0  0  0
 21 20  2  0  0  0  0
 22 20  1  0  0  0  0
 23 21  1  0  0  0  0
 24 23  2  0  0  0  0
 24 22  1  0  0  0  0
 25 23  1  0  0  0  0
 26 24  1  0  0  0  0
 27 25  1  0  0  0  0
 28 26  1  0  0  0  0
 28 25  2  0  0  0  0
M  END
>  <MODEL>
1

>  <REMARK>
 VINA RESULT:    -4.228      0.000      0.000
 INTER + INTRA:          -4.707
 INTER:                  -4.970
 INTRA:                   0.263
 UNBOUND:                 0.263
 SMILES Cc1ccc(C)c(S(=O)(=O)N2CCN(C(=O)c3cc4c(C)noc4s3)CC2)c1
 SMILES IDX 11 1 12 2 13 3 14 4 15 5 16 6 26 7 27 8 8 9 9 10 10 11 7 12
 SMILES IDX 1 13 2 14 3 15 28 16 4 17 5 18 6 19 17 20 18 21 25 22 19 23
 SMILES IDX 24 24 20 25 23 26 21 27 22 28
 H PARENT
 Flexibility Score: inf

>  <TORSDO>
F 3

$$$$
PC04
 OpenBabel07182316283D

 23 27  0  0  0  0  0  0  0  0999 V2000
    1.9620    9.6920   17.3080 O   0  0  0  0  0  0  0  0  0  0  0  0
    1.5940    9.5430   18.5140 C   0  0  0  0  0  0  0  0  0  0  0  0
    0.8910   10.4520   19.1480 O   0  0  0  0  0  0  0  0  0  0  0  0
    0.4960   10.3330   20.3850 C   0  0  0  0  0  0  0  0  0  0  0  0
    0.8270    9.1960   21.0790 C   0  0  0  0  0  0  0  0  0  0  0  0
    1.5760    8.2070   20.4360 C   0  0  0  0  0  0  0  0  0  0  0  0
    2.0580    7.0050   20.8120 N   0  0  0  0  0  0  0  0  0  0  0  0
    2.7320    6.4240   19.7980 C   0  0  0  0  0  0  0  0  0  0  0  0
    3.4080    5.2240   19.6500 C   0  0  0  0  0  3  0  0  0  0  0  0
    4.0240    4.8740   18.4690 C   0  0  0  0  0  3  0  0  0  0  0  0
    3.9880    5.7230   17.3760 C   0  0  0  0  0  3  0  0  0  0  0  0
    3.3200    6.9210   17.5080 C   0  0  0  0  0  3  0  0  0  0  0  0
    2.6990    7.2680   18.7080 C   0  0  0  0  0  0  0  0  0  0  0  0
    1.9760    8.3660   19.1260 C   0  0  0  0  0  0  0  0  0  0  0  0
    0.4600    8.9090   22.4760 C   0  0  0  0  0  3  0  0  0  0  0  0
   -0.3320    9.9500   23.1630 C   0  0  0  0  0  3  0  0  0  0  0  0
   -0.6470   11.1300   22.3630 C   0  0  0  0  0  0  0  0  0  0  0  0
   -1.3960   12.1340   22.9880 C   0  0  0  0  0  3  0  0  0  0  0  0
   -1.7430   13.2860   22.3150 C   0  0  0  0  0  3  0  0  0  0  0  0
   -1.3590   13.4840   20.9990 C   0  0  0  0  0  3  0  0  0  0  0  0
   -0.6210   12.4880   20.3910 C   0  0  0  0  0  3  0  0  0  0  0  0
   -0.2860   11.3550   21.0730 C   0  0  0  0  0  0  0  0  0  0  0  0
    1.9180    6.6060   21.7530 H   0  0  0  0  0  0  0  0  0  0  0  0
  1  2  2  0  0  0  0
  2 14  1  0  0  0  0
  2  3  1  0  0  0  0
  3  4  1  0  0  0  0
  4 22  2  0  0  0  0
  4  5  1  0  0  0  0
  5 15  2  0  0  0  0
  6  7  1  0  0  0  0
  6  5  1  0  0  0  0
  7 23  1  0  0  0  0
  8  7  1  0  0  0  0
  9  8  1  0  0  0  0
 10  9  2  0  0  0  0
 11 12  2  0  0  0  0
 11 10  1  0  0  0  0
 12 13  1  0  0  0  0
 13 14  1  0  0  0  0
 13  8  2  0  0  0  0
 14  6  2  0  0  0  0
 15 16  1  0  0  0  0
 17 18  1  0  0  0  0
 17 16  2  0  0  0  0
 19 18  2  0  0  0  0
 20 19  1  0  0  0  0
 21 20  2  0  0  0  0
 21 22  1  0  0  0  0
 22 17  1  0  0  0  0
M  END
>  <MODEL>
1

>  <REMARK>
 VINA RESULT:    -6.384      0.000      0.000
 INTER + INTRA:          -6.384
 INTER:                  -6.384
 INTRA:                   0.000
 UNBOUND:                 0.000
 SMILES O=c1oc2c(c3[nH]c4ccccc4c13)CCc1ccccc1-2
 SMILES IDX 1 1 2 2 3 3 4 4 5 5 6 6 7 7 8 8 9 9 10 10 11 11 12 12 13 13
 SMILES IDX 14 14 15 15 16 16 17 17 18 18 19 19 20 20 21 21 22 22
 H PARENT 7 23
 Flexibility Score: inf

>  <TORSDO>
F 0

$$$$
PC05
 OpenBabel07182316283D

 33 33  0  0  1  0  0  0  0  0999 V2000
   -0.7510   11.2880   19.1260 N   0  0  0  0  0  2  0  0  0  0  0  0
   -1.7750   11.0900   18.1580 C   0  0  0  0  0  0  0  0  0  0  0  0
   -1.5260   10.3620   17.1660 O   0  0  0  0  0  0  0  0  0  0  0  0
   -3.1200   11.6620   18.2020 C   0  0  2  0  0  3  0  0  0  0  0  0
   -3.4040   10.3070   16.4040 N   0  0  0  0  0  2  0  0  0  0  0  0
   -3.9370   11.1700   17.1800 C   0  0  0  0  0  0  0  0  0  0  0  0
   -3.9770    9.9130   15.6280 H   0  0  0  0  0  0  0  0  0  0  0  0
   -5.1730   11.6390   17.1190 N   0  0  0  0  0  0  0  0  0  0  0  0
   -5.6640   12.5510   17.9800 C   0  0  0  0  0  2  0  0  0  0  0  0
   -3.6390   12.5940   19.0770 C   0  0  0  0  0  0  0  0  0  0  0  0
   -4.8980   13.0360   18.9690 N   0  0  0  0  0  0  0  0  0  0  0  0
   -5.2820   13.7320   19.6250 H   0  0  0  0  0  0  0  0  0  0  0  0
   -2.9180   13.1530   20.1360 O   0  0  0  0  0  0  0  0  0  0  0  0
   -1.8680   12.5780   20.9050 *   0  0  0  0  0  0  0  0  0  0  0  0
    0.2340   10.2540   19.0970 C   0  0  0  0  0  0  0  0  0  0  0  0
    1.0090   10.0310   17.9700 C   0  0  0  0  0  3  0  0  0  0  0  0
    0.4200    9.4470   20.1790 C   0  0  0  0  0  3  0  0  0  0  0  0
    1.9460    9.0190   17.9380 C   0  0  0  0  0  3  0  0  0  0  0  0
    1.3650    8.4280   20.1410 C   0  0  0  0  0  3  0  0  0  0  0  0
    2.1400    8.1850   19.0460 C   0  0  0  0  0  0  0  0  0  0  0  0
    3.1280    7.1170   18.9140 C   0  0  2  0  0  3  0  0  0  0  0  0
    3.7200    7.3300   17.4960 C   0  0  0  0  0  2  0  0  0  0  0  0
    2.6760    5.7270   18.9820 C   0  0  0  0  0  2  0  0  0  0  0  0
    4.9290    6.4580   17.3370 C   0  0  0  0  0  2  0  0  0  0  0  0
    3.1680    4.8640   17.8200 C   0  0  0  0  0  2  0  0  0  0  0  0
    4.6690    5.0180   17.7530 C   0  0  1  0  0  3  0  0  0  0  0  0
    5.3250    4.0670   16.7820 C   0  0  0  0  0  2  0  0  0  0  0  0
    6.7780    4.2800   16.6370 C   0  0  0  0  0  0  0  0  0  0  0  0
    7.5820    3.9860   17.7910 N   0  0  0  0  0  0  0  0  0  0  0  0
    7.3560    4.6890   15.6130 O   0  0  0  0  0  0  0  0  0  0  0  0
    7.7770    4.7880   18.4300 H   0  0  0  0  0  0  0  0  0  0  0  0
    7.9310    3.0300   17.9520 H   0  0  0  0  0  0  0  0  0  0  0  0
   -0.6410   12.3630   20.0660 *   0  0  0  0  0  0  0  0  0  0  0  0
  2  1  1  0  0  0  0
  3  2  2  0  0  0  0
  4  2  1  6  0  0  0
  4 10  1  0  0  0  0
  5  6  1  0  0  0  0
  6  4  1  0  0  0  0
  7  5  1  0  0  0  0
  8  6  2  0  0  0  0
  8  9  1  0  0  0  0
  9 11  1  0  0  0  0
 10 13  2  0  0  0  0
 11 10  1  0  0  0  0
 11 12  1  0  0  0  0
 15  1  1  0  0  0  0
 15 17  1  0  0  0  0
 16 15  2  0  0  0  0
 18 16  1  0  0  0  0
 18 20  2  0  0  0  0
 19 17  2  0  0  0  0
 20 19  1  0  0  0  0
 21 23  1  0  0  0  0
 21 20  1  6  0  0  0
 22 21  1  0  0  0  0
 24 22  1  0  0  0  0
 24 26  1  0  0  0  0
 25 23  1  0  0  0  0
 26 27  1  6  0  0  0
 26 25  1  0  0  0  0
 28 27  1  0  0  0  0
 28 29  1  0  0  0  0
 29 32  1  0  0  0  0
 29 31  1  0  0  0  0
 30 28  2  0  0  0  0
M  END
>  <MODEL>
1

>  <REMARK>
 VINA RESULT:    -4.452      0.000      0.000
 INTER + INTRA:          -5.688
 INTER:                  -6.795
 INTRA:                   1.106
 UNBOUND:                 1.106
 SMILES N=c1nc[nH]c2c1C(=O)N(c1ccc([C@H]3CC[C@@H](CC(N)=O)CC3)cc1)CCO2
 SMILES IDX 10 1 8 2 9 3 7 4 1 5 2 6 3 8 4 9 6 10 5 11 29 13 28 14 11 16
 SMILES IDX 12 17 26 18 13 19 25 20 14 21 15 22 16 23 24 24 17 25 23 26
 SMILES IDX 18 27 19 28 20 29 21 30 22 31 27 34
 H PARENT 1 7 5 12 21 32 21 33
 Flexibility Score: 80.00

>  <TORSDO>
F 4

$$$$
PC06
 OpenBabel07182316283D

 33 35  0  0  1  0  0  0  0  0999 V2000
   -3.1100   13.5240   23.3990 C   0  0  1  0  0  3  0  0  0  0  0  0
   -3.4680   13.7520   21.9900 N   0  0  0  0  0  0  0  0  0  0  0  0
   -5.0680   12.1200   21.9790 O   0  0  0  0  0  0  0  0  0  0  0  0
   -4.4580   13.0180   21.3250 C   0  0  0  0  0  0  0  0  0  0  0  0
   -2.9400   14.5010   21.4990 H   0  0  0  0  0  0  0  0  0  0  0  0
   -4.7860   13.2870   19.8830 C   0  0  0  0  0  2  0  0  0  0  0  0
   -4.0480   12.3190   19.0070 C   0  0  0  0  0  0  0  0  0  0  0  0
   -2.6710   12.2690   19.0070 C   0  0  0  0  0  3  0  0  0  0  0  0
   -4.7310   11.4500   18.1780 C   0  0  0  0  0  0  0  0  0  0  0  0
   -1.9480   11.3980   18.2230 C   0  0  0  0  0  3  0  0  0  0  0  0
   -4.0480   10.5630   17.3790 C   0  0  0  0  0  3  0  0  0  0  0  0
   -6.0890   11.5010   18.1820 F   0  0  0  0  0  0  0  0  0  0  0  0
   -2.6590   10.5280   17.3930 C   0  0  0  0  0  3  0  0  0  0  0  0
   -1.6080   13.6180   23.4480 C   0  0  0  0  0  2  0  0  0  0  0  0
   -0.9060   12.5680   22.6910 C   0  0  0  0  0  0  0  0  0  0  0  0
   -1.1540   11.2320   22.9420 C   0  0  0  0  0  3  0  0  0  0  0  0
    0.0170   12.8270   21.7070 C   0  0  0  0  0  3  0  0  0  0  0  0
   -0.5230   10.2240   22.2560 C   0  0  0  0  0  3  0  0  0  0  0  0
    0.6640   11.8350   21.0050 C   0  0  0  0  0  3  0  0  0  0  0  0
    0.4130   10.5240   21.2580 C   0  0  0  0  0  0  0  0  0  0  0  0
    1.0570    9.4280   20.5530 C   0  0  0  0  0  0  0  0  0  0  0  0
    1.3260    8.2360   21.1760 C   0  0  0  0  0  3  0  0  0  0  0  0
    1.4040    9.5820   19.2360 C   0  0  0  0  0  0  0  0  0  0  0  0
    1.9470    7.1940   20.4750 C   0  0  0  0  0  0  0  0  0  0  0  0
    2.0260    8.5400   18.5320 C   0  0  0  0  0  0  0  0  0  0  0  0
    1.1460   10.7540   18.6070 F   0  0  0  0  0  0  0  0  0  0  0  0
    2.2180    6.0090   21.0880 F   0  0  0  0  0  0  0  0  0  0  0  0
    2.2940    7.3490   19.1600 C   0  0  0  0  0  3  0  0  0  0  0  0
    2.3660    8.7100   17.2210 F   0  0  0  0  0  0  0  0  0  0  0  0
   -3.7760   14.5200   24.2690 C   0  0  0  0  0  0  0  0  0  0  0  0
   -3.1330   15.5050   24.7030 O   0  0  0  0  0  0  0  0  0  0  0  0
   -5.1050   14.4040   24.6290 O   0  0  0  0  0  0  0  0  0  0  0  0
   -5.8690   14.7630   24.0330 H   0  0  0  0  0  0  0  0  0  0  0  0
  1 14  1  6  0  0  0
  1 30  1  0  0  0  0
  2  1  1  0  0  0  0
  4  3  2  0  0  0  0
  4  2  1  0  0  0  0
  5  2  1  0  0  0  0
  6  4  1  0  0  0  0
  7  8  1  0  0  0  0
  7  6  1  0  0  0  0
  9 12  1  0  0  0  0
  9  7  2  0  0  0  0
 10  8  2  0  0  0  0
 11 13  2  0  0  0  0
 11  9  1  0  0  0  0
 13 10  1  0  0  0  0
 15 16  1  0  0  0  0
 15 14  1  0  0  0  0
 17 15  2  0  0  0  0
 18 16  2  0  0  0  0
 19 20  2  0  0  0  0
 19 17  1  0  0  0  0
 20 18  1  0  0  0  0
 21 22  1  0  0  0  0
 21 20  1  0  0  0  0
 23 21  2  0  0  0  0
 24 27  1  0  0  0  0
 24 22  2  0  0  0  0
 25 28  2  0  0  0  0
 25 23  1  0  0  0  0
 26 23  1  0  0  0  0
 28 24  1  0  0  0  0
 29 25  1  0  0  0  0
 30 32  1  0  0  0  0
 30 31  2  0  0  0  0
 33 32  1  0  0  0  0
M  END
>  <MODEL>
1

>  <REMARK>
 VINA RESULT:    -5.556      0.000      0.000
 INTER + INTRA:         -10.647
 INTER:                  -7.991
 INTRA:                  -2.655
 UNBOUND:                -2.655
 SMILES O=C(Cc1ccccc1F)N[C@@H](Cc1ccc(-c2cc(F)cc(F)c2F)cc1)C(=O)O
 SMILES IDX 12 1 11 2 1 3 2 4 3 6 4 7 5 8 9 9 6 10 8 11 10 12 7 13 13 14
 SMILES IDX 14 15 15 16 28 17 16 18 27 19 17 20 18 21 19 22 25 23 20 24
 SMILES IDX 23 25 26 26 21 27 22 28 24 29 29 30 30 31 31 32
 H PARENT 11 5 31 33
 Flexibility Score: inf

>  <TORSDO>
F 8

$$$$
PC07
 OpenBabel07182316283D

 38 43  0  0  0  0  0  0  0  0999 V2000
    0.1140   10.7240   21.7250 O   0  0  0  0  0  0  0  0  0  0  0  0
   -0.3950   11.7770   21.2410 C   0  0  0  0  0  0  0  0  0  0  0  0
   -1.5920   12.3180   21.8780 C   0  0  0  0  0  0  0  0  0  0  0  0
   -1.7820   12.8000   23.1550 C   0  0  0  0  0  3  0  0  0  0  0  0
   -2.7840   12.4760   21.2470 N   0  0  0  0  0  0  0  0  0  0  0  0
   -3.0890   13.2540   23.3090 C   0  0  0  0  0  0  0  0  0  0  0  0
   -3.6800   13.0280   22.0770 C   0  0  0  0  0  0  0  0  0  0  0  0
   -2.9410   12.1980   20.2560 H   0  0  0  0  0  0  0  0  0  0  0  0
   -3.8380   13.8360   24.3090 C   0  0  0  0  0  0  0  0  0  0  0  0
   -5.0140   13.4040   21.9040 C   0  0  0  0  0  0  0  0  0  0  0  0
   -3.3010   14.0340   25.4200 O   0  0  0  0  0  0  0  0  0  0  0  0
   -5.1030   14.1820   24.1120 N   0  0  0  0  0  0  0  0  0  0  0  0
   -5.6610   13.9630   22.9290 N   0  0  0  0  0  0  0  0  0  0  0  0
   -5.6850   14.6390   24.8800 H   0  0  0  0  0  0  0  0  0  0  0  0
   -5.6300   13.1890   20.6010 C   0  0  0  0  0  0  0  0  0  0  0  0
   -5.6660   14.2650   19.7420 C   0  0  0  0  0  3  0  0  0  0  0  0
   -6.1780   11.9670   20.2710 C   0  0  0  0  0  3  0  0  0  0  0  0
   -6.2680   14.1130   18.5150 C   0  0  0  0  0  3  0  0  0  0  0  0
   -6.7730   11.8490   19.0340 C   0  0  0  0  0  3  0  0  0  0  0  0
   -6.8350   12.9000   18.1360 C   0  0  0  0  0  0  0  0  0  0  0  0
   -7.4230   12.7570   16.9210 F   0  0  0  0  0  0  0  0  0  0  0  0
    0.2500   12.3630   20.0810 C   0  0  0  0  0  0  0  0  0  0  0  0
   -0.1280   12.2480   18.7760 C   0  0  0  0  0  0  0  0  0  0  0  0
    1.3800   13.2080   20.1400 C   0  0  0  0  0  0  0  0  0  0  0  0
    0.7650   13.0160   18.0630 N   0  0  0  0  0  0  0  0  0  0  0  0
    1.6570   13.5870   18.8520 C   0  0  0  0  0  0  0  0  0  0  0  0
    2.1000   13.6110   21.2390 C   0  0  0  0  0  3  0  0  0  0  0  0
    0.7490   13.1440   17.0360 H   0  0  0  0  0  0  0  0  0  0  0  0
    2.7560   14.4420   18.7060 C   0  0  0  0  0  3  0  0  0  0  0  0
    3.1870   14.4670   21.0490 C   0  0  0  0  0  0  0  0  0  0  0  0
    3.5060   14.8740   19.7730 C   0  0  0  0  0  3  0  0  0  0  0  0
    4.1770   15.0430   22.5710 Br  0  0  0  0  0  0  0  0  0  0  0  0
   -1.2430   11.5410   18.1740 C   0  0  0  0  0  0  0  0  0  0  0  0
   -2.4750   12.1060   17.9990 C   0  0  0  0  0  3  0  0  0  0  0  0
   -1.0150   10.2560   17.7040 C   0  0  0  0  0  3  0  0  0  0  0  0
   -3.5070   11.4050   17.3500 C   0  0  0  0  0  3  0  0  0  0  0  0
   -2.0320    9.5580   17.0610 C   0  0  0  0  0  3  0  0  0  0  0  0
   -3.2670   10.1270   16.8850 C   0  0  0  0  0  3  0  0  0  0  0  0
  2  1  2  0  0  0  0
  2  3  1  0  0  0  0
  3  4  2  0  0  0  0
  4  6  1  0  0  0  0
  5  3  1  0  0  0  0
  5  7  1  0  0  0  0
  6  9  1  0  0  0  0
  7  6  2  0  0  0  0
  8  5  1  0  0  0  0
  9 11  2  0  0  0  0
 10  7  1  0  0  0  0
 10 13  2  0  0  0  0
 12  9  1  0  0  0  0
 12 14  1  0  0  0  0
 13 12  1  0  0  0  0
 15 10  1  0  0  0  0
 16 15  2  0  0  0  0
 17 15  1  0  0  0  0
 18 16  1  0  0  0  0
 19 17  2  0  0  0  0
 20 18  2  0  0  0  0
 20 19  1  0  0  0  0
 21 20  1  0  0  0  0
 22 24  1  0  0  0  0
 22  2  1  0  0  0  0
 23 22  2  0  0  0  0
 24 27  1  0  0  0  0
 25 23  1  0  0  0  0
 25 26  1  0  0  0  0
 26 24  2  0  0  0  0
 28 25  1  0  0  0  0
 29 26  1  0  0  0  0
 29 31  2  0  0  0  0
 30 27  2  0  0  0  0
 30 32  1  0  0  0  0
 31 30  1  0  0  0  0
 33 23  1  0  0  0  0
 34 33  1  0  0  0  0
 35 33  2  0  0  0  0
 36 34  2  0  0  0  0
 37 35  1  0  0  0  0
 38 37  2  0  0  0  0
 38 36  1  0  0  0  0
M  END
>  <MODEL>
1

>  <REMARK>
 VINA RESULT:    -5.548      0.000      0.000
 INTER + INTRA:          -9.663
 INTER:                  -6.846
 INTRA:                  -2.817
 UNBOUND:                -2.817
 SMILES O=C(c1cc2c(=O)[nH]nc(-c3ccc(F)cc3)c2[nH]1)c1c(-c2ccccc2)[nH]c2ccc(Br)cc12
 SMILES IDX 1 1 2 2 3 3 4 4 19 5 5 6 18 7 6 9 10 10 7 11 8 12 9 13 11 15
 SMILES IDX 12 16 17 17 13 18 16 19 14 20 15 21 20 22 21 23 35 24 28 25
 SMILES IDX 29 26 34 27 30 29 32 30 31 31 33 32 22 33 23 34 27 35 24 36
 SMILES IDX 26 37 25 38
 H PARENT 19 8 8 14 28 28
 Flexibility Score: inf

>  <TORSDO>
F 4

$$$$
PC08
 OpenBabel07182316283D

 30 33  0  0  1  0  0  0  0  0999 V2000
    0.3900   10.1100   20.7300 C   0  0  0  0  0  0  0  0  0  0  0  0
    0.3660    9.1400   21.6960 C   0  0  0  0  0  3  0  0  0  0  0  0
   -0.1500    9.4680   22.9600 C   0  0  0  0  0  3  0  0  0  0  0  0
   -0.6250   10.7280   23.2300 C   0  0  0  0  0  3  0  0  0  0  0  0
   -0.6020   11.6990   22.2620 C   0  0  0  0  0  0  0  0  0  0  0  0
   -0.0920   11.3680   21.0260 C   0  0  0  0  0  3  0  0  0  0  0  0
    0.9090    9.8500   19.4120 C   0  0  0  0  0  0  0  0  0  0  0  0
    0.7110   10.6960   18.4990 O   0  0  0  0  0  0  0  0  0  0  0  0
    1.6310    8.6700   19.1370 N   0  0  0  0  0  0  0  0  0  0  0  0
    1.8130    7.9530   19.8950 H   0  0  0  0  0  0  0  0  0  0  0  0
    2.1460    8.4070   17.8220 C   0  0  0  0  0  2  0  0  0  0  0  0
    2.9240    7.1400   17.8140 C   0  0  2  0  0  3  0  0  0  0  0  0
    3.1100    6.5890   19.2280 C   0  0  0  0  0  2  0  0  0  0  0  0
    4.2350    7.4570   17.3350 O   0  0  0  0  0  0  0  0  0  0  0  0
    3.9270    5.4320   19.0910 O   0  0  0  0  0  0  0  0  0  0  0  0
    5.2040    6.4680   17.4040 C   0  0  0  0  0  0  0  0  0  0  0  0
    5.0630    5.4290   18.2930 C   0  0  0  0  0  0  0  0  0  0  0  0
    6.2910    6.5360   16.5890 C   0  0  0  0  0  3  0  0  0  0  0  0
    6.0330    4.4570   18.3480 C   0  0  0  0  0  3  0  0  0  0  0  0
    7.2870    5.5640   16.6260 C   0  0  0  0  0  3  0  0  0  0  0  0
    7.1300    4.5330   17.5180 C   0  0  0  0  0  3  0  0  0  0  0  0
   -1.1820   13.3020   22.5400 S   0  0  0  0  0  0  0  0  0  0  0  0
   -1.7570   13.8670   21.2530 O   0  0  0  0  0  0  0  0  0  0  0  0
   -0.0740   14.2490   22.9400 O   0  0  0  0  0  0  0  0  0  0  0  0
   -2.3440   13.3080   23.7970 N   0  0  0  0  0  0  0  0  0  0  0  0
   -3.5620   12.6340   23.4670 C   0  0  0  0  0  2  0  0  0  0  0  0
   -2.5180   14.5860   24.4070 C   0  0  0  0  0  2  0  0  0  0  0  0
   -4.6500   13.1190   24.4000 C   0  0  0  0  0  2  0  0  0  0  0  0
   -3.8140   15.2580   24.0970 C   0  0  0  0  0  2  0  0  0  0  0  0
   -4.9200   14.4470   24.1780 O   0  0  0  0  0  0  0  0  0  0  0  0
  1  6  2  0  0  0  0
  1  2  1  0  0  0  0
  2  3  2  0  0  0  0
  3  4  1  0  0  0  0
  5 22  1  0  0  0  0
  5  4  2  0  0  0  0
  6  5  1  0  0  0  0
  7  1  1  0  0  0  0
  8  7  2  0  0  0  0
  9  7  1  0  0  0  0
  9 10  1  0  0  0  0
 11  9  1  0  0  0  0
 12 11  1  1  0  0  0
 12 13  1  0  0  0  0
 14 16  1  0  0  0  0
 14 12  1  0  0  0  0
 15 13  1  0  0  0  0
 16 17  1  0  0  0  0
 17 19  2  0  0  0  0
 17 15  1  0  0  0  0
 18 20  1  0  0  0  0
 18 16  2  0  0  0  0
 20 21  2  0  0  0  0
 21 19  1  0  0  0  0
 22 24  2  0  0  0  0
 22 25  1  0  0  0  0
 23 22  2  0  0  0  0
 25 27  1  0  0  0  0
 26 25  1  0  0  0  0
 26 28  1  0  0  0  0
 29 30  1  0  0  0  0
 29 27  1  0  0  0  0
 30 28  1  0  0  0  0
M  END
>  <MODEL>
1

>  <REMARK>
 VINA RESULT:    -5.909      0.000      0.000
 INTER + INTRA:          -8.092
 INTER:                  -7.637
 INTRA:                  -0.455
 UNBOUND:                -0.455
 SMILES O=C(NC[C@@H]1COc2ccccc2O1)c1cccc(S(=O)(=O)N2CCOCC2)c1
 SMILES IDX 15 1 16 2 17 3 18 4 19 5 29 6 2 7 1 8 3 9 4 11 5 12 6 13
 SMILES IDX 14 14 7 15 13 16 8 17 12 18 9 19 11 20 10 21 20 22 21 23
 SMILES IDX 22 24 23 25 24 26 28 27 25 28 27 29 26 30
 H PARENT 3 10
 Flexibility Score: inf

>  <TORSDO>
F 5

$$$$
PC09
 OpenBabel07182316283D

 26 26  0  0  1  0  0  0  0  0999 V2000
    3.4060    6.7030   18.5060 C   0  0  0  0  0  0  0  0  0  0  0  0
    3.2030    7.6640   17.5420 C   0  0  0  0  0  3  0  0  0  0  0  0
    2.3300    8.7150   17.7620 C   0  0  0  0  0  3  0  0  0  0  0  0
    1.6280    8.8520   18.9420 C   0  0  0  0  0  0  0  0  0  0  0  0
    0.7980    9.9160   19.1800 C   0  0  0  0  0  0  0  0  0  0  0  0
    0.6090   10.8150   18.3040 O   0  0  0  0  0  0  0  0  0  0  0  0
    0.1640   10.0050   20.3890 N   0  0  0  0  0  0  0  0  0  0  0  0
    0.3380    9.0790   21.3360 C   0  0  0  0  0  0  0  0  0  0  0  0
    1.1720    8.0200   21.0900 N   0  0  0  0  0  0  0  0  0  0  0  0
    1.8130    7.8980   19.9180 C   0  0  0  0  0  0  0  0  0  0  0  0
    2.6970    6.8470   19.6760 C   0  0  0  0  0  3  0  0  0  0  0  0
    4.4170    5.6280   18.3130 C   0  0  0  0  0  0  0  0  0  0  0  0
    4.4980    4.7640   19.2930 O   0  0  0  0  0  0  0  0  0  0  0  0
    5.2220    5.4720   17.2750 N   0  0  0  0  0  2  0  0  0  0  0  0
    6.8050    3.9210   13.0650 C   0  0  0  0  0  1  0  0  0  0  0  0
    6.7660    4.6430   14.3660 C   0  0  1  0  0  3  0  0  0  0  0  0
    5.6380    4.5310   15.2200 C   0  0  0  0  0  3  0  0  0  0  0  0
    7.5900    5.4170   14.9640 O   0  0  0  0  0  0  0  0  0  0  0  0
    5.9380    5.3320   16.3520 C   0  0  0  0  0  0  0  0  0  0  0  0
    7.1440    5.8230   16.0940 N   0  0  0  0  0  0  0  0  0  0  0  0
    7.7130    6.4760   16.7190 H   0  0  0  0  0  0  0  0  0  0  0  0
   -0.2500    9.0060   22.6630 C   0  0  0  0  0  2  0  0  0  0  0  0
   -0.2190   10.3130   23.4140 C   0  0  0  0  0  1  0  0  0  0  0  0
   -1.0940   11.3800   22.8430 *   0  0  0  0  0  0  0  0  0  0  0  0
   -0.6250   11.1980   20.4550 C   0  0  0  0  0  1  0  0  0  0  0  0
   -0.2990   12.0180   21.6930 *   0  0  0  0  0  0  0  0  0  0  0  0
  1 11  1  0  0  0  0
  2  3  1  0  0  0  0
  2  1  2  0  0  0  0
  3  4  2  0  0  0  0
  4  5  1  0  0  0  0
  4 10  1  0  0  0  0
  5  7  1  0  0  0  0
  6  5  2  0  0  0  0
  7 25  1  0  0  0  0
  7  8  1  0  0  0  0
  8 22  1  0  0  0  0
  9  8  2  0  0  0  0
 10  9  1  0  0  0  0
 11 10  2  0  0  0  0
 12  1  1  0  0  0  0
 12 13  2  0  0  0  0
 14 12  1  0  0  0  0
 16 15  1  1  0  0  0
 16 18  1  0  0  0  0
 16 17  1  0  0  0  0
 17 19  2  0  0  0  0
 18 20  1  0  0  0  0
 19 14  1  0  0  0  0
 20 19  1  0  0  0  0
 20 21  1  0  0  0  0
 22 23  1  0  0  0  0
M  END
>  <MODEL>
1

>  <REMARK>
 VINA RESULT:    -4.432      0.000      0.000
 INTER + INTRA:          -5.934
 INTER:                  -6.246
 INTRA:                   0.313
 UNBOUND:                 0.313
 SMILES Cc1cc(=NC(=O)c2ccc3c(=O)n4c(nc3c2)CCCCC4)[nH]o1
 SMILES IDX 8 1 9 2 10 3 11 4 12 5 13 6 14 7 15 8 16 9 17 10 18 11 6 12
 SMILES IDX 7 13 5 14 1 15 2 16 3 17 25 18 4 19 24 20 19 22 20 23 21 24
 SMILES IDX 23 26 22 27
 H PARENT 24 21
 Flexibility Score: 80.00

>  <TORSDO>
F 2

$$$$
PC10
 OpenBabel07182316283D

 33 37  0  0  0  0  0  0  0  0999 V2000
    0.6280   10.3730   20.0700 C   0  0  0  0  0  2  0  0  0  0  0  0
    0.9490    9.0060   19.6840 N   0  0  0  0  0  0  0  0  0  0  0  0
    2.4710    6.8070   19.0020 N   0  0  0  0  0  0  0  0  0  0  0  0
    2.6900    8.0440   18.2750 C   0  0  0  0  0  2  0  0  0  0  0  0
    1.9080    6.9080   20.3400 C   0  0  0  0  0  2  0  0  0  0  0  0
    1.4480    8.9230   18.3480 C   0  0  0  0  0  2  0  0  0  0  0  0
    1.8390    8.3890   20.6440 C   0  0  0  0  0  2  0  0  0  0  0  0
    2.7900    5.5710   18.4030 C   0  0  0  0  0  0  0  0  0  0  0  0
    7.0610    4.7680   14.7240 C   0  0  0  0  0  1  0  0  0  0  0  0
    5.9290    4.9670   15.6970 C   0  0  0  0  0  0  0  0  0  0  0  0
    5.6840    6.1990   16.2610 C   0  0  0  0  0  3  0  0  0  0  0  0
    5.1100    3.9640   16.0540 N   0  0  0  0  0  0  0  0  0  0  0  0
    4.6560    6.4320   17.1570 C   0  0  0  0  0  3  0  0  0  0  0  0
    4.0980    4.1670   16.9260 C   0  0  0  0  0  0  0  0  0  0  0  0
    3.8220    5.3850   17.5130 C   0  0  0  0  0  0  0  0  0  0  0  0
    3.2780    3.0900   17.2710 C   0  0  0  0  0  3  0  0  0  0  0  0
    2.2440    3.2630   18.1610 C   0  0  0  0  0  3  0  0  0  0  0  0
    1.9730    4.4840   18.7420 C   0  0  0  0  0  3  0  0  0  0  0  0
    0.3370   11.2430   18.8880 C   0  0  0  0  0  2  0  0  0  0  0  0
   -1.0880   11.6530   18.9290 C   0  0  0  0  0  0  0  0  0  0  0  0
   -1.6500   12.2690   20.0400 C   0  0  0  0  0  3  0  0  0  0  0  0
   -1.9180   11.4420   17.8410 C   0  0  0  0  0  3  0  0  0  0  0  0
   -2.9690   12.6490   20.0580 C   0  0  0  0  0  0  0  0  0  0  0  0
   -3.2460   11.8100   17.8230 C   0  0  0  0  0  0  0  0  0  0  0  0
   -3.7700   12.4260   18.9620 C   0  0  0  0  0  0  0  0  0  0  0  0
   -4.0300   11.6020   16.7670 N   0  0  0  0  0  0  0  0  0  0  0  0
   -5.1180   12.7910   18.9150 C   0  0  0  0  0  0  0  0  0  0  0  0
   -5.3050   11.9510   16.7340 N   0  0  0  0  0  0  0  0  0  0  0  0
   -5.7240   13.4450   20.0970 C   0  0  0  0  0  1  0  0  0  0  0  0
   -5.8720   12.5440   17.7870 C   0  0  0  0  0  0  0  0  0  0  0  0
   -7.3030   12.9350   17.7400 C   0  0  0  0  0  1  0  0  0  0  0  0
   -3.5050   13.2570   21.1670 O   0  0  0  0  0  0  0  0  0  0  0  0
   -4.4780   13.1020   21.4460 H   0  0  0  0  0  0  0  0  0  0  0  0
  2  1  1  0  0  0  0
  2  7  1  0  0  0  0
  3  5  1  0  0  0  0
  4  6  1  0  0  0  0
  4  3  1  0  0  0  0
  5  7  1  0  0  0  0
  6  2  1  0  0  0  0
  8 18  1  0  0  0  0
  8  3  1  0  0  0  0
  9 10  1  0  0  0  0
 10 12  2  0  0  0  0
 10 11  1  0  0  0  0
 11 13  2  0  0  0  0
 12 14  1  0  0  0  0
 13 15  1  0  0  0  0
 14 16  2  0  0  0  0
 14 15  1  0  0  0  0
 15  8  2  0  0  0  0
 16 17  1  0  0  0  0
 17 18  2  0  0  0  0
 19 20  1  0  0  0  0
 19  1  1  0  0  0  0
 20 21  1  0  0  0  0
 21 23  2  0  0  0  0
 22 20  2  0  0  0  0
 23 32  1  0  0  0  0
 24 22  1  0  0  0  0
 24 25  1  0  0  0  0
 25 23  1  0  0  0  0
 26 24  2  0  0  0  0
 27 25  2  0  0  0  0
 27 29  1  0  0  0  0
 28 26  1  0  0  0  0
 28 30  2  0  0  0  0
 30 27  1  0  0  0  0
 31 30  1  0  0  0  0
 32 33  1  0  0  0  0
M  END
>  <MODEL>
1

>  <REMARK>
 VINA RESULT:    -5.366      0.000      0.000
 INTER + INTRA:          -6.279
 INTER:                  -6.777
 INTRA:                   0.498
 UNBOUND:                 0.498
 SMILES Cc1ccc2c(N3CCN(CCc4cc(O)c5c(C)c(C)nnc5c4)CC3)cccc2n1
 SMILES IDX 11 1 10 2 7 3 8 4 27 5 9 6 26 7 6 8 1 9 2 10 3 11 32 12 4 13
 SMILES IDX 31 14 5 15 30 16 29 17 28 18 12 19 13 20 14 21 25 22 15 23
 SMILES IDX 24 24 17 25 23 26 18 27 22 28 19 29 20 30 21 31 16 32
 H PARENT 16 33
 Flexibility Score: inf

>  <TORSDO>
F 5

$$$$
UD01
 OpenBabel07182316283D

 24 26  0  0  1  0  0  0  0  0999 V2000
   -4.4770   12.1970   21.5980 O   0  0  0  0  0  0  0  0  0  0  0  0
   -3.5930   12.9470   21.1160 C   0  0  0  0  0  0  0  0  0  0  0  0
   -3.5570   13.0050   19.6930 N   0  0  0  0  0  0  0  0  0  0  0  0
   -2.8530   13.6010   19.1790 H   0  0  0  0  0  0  0  0  0  0  0  0
   -2.6310   13.7380   21.8710 C   0  0  1  0  0  3  0  0  0  0  0  0
   -2.7520   13.6420   23.3550 C   0  0  0  0  0  2  0  0  0  0  0  0
   -1.1950   13.4230   21.6310 C   0  0  1  0  0  3  0  0  0  0  0  0
   -1.4880   14.2010   23.7880 N   0  0  0  0  0  0  0  0  0  0  0  0
   -0.5660   14.2410   22.7100 C   0  0  0  0  0  0  0  0  0  0  0  0
   -1.2910   14.5280   24.7580 H   0  0  0  0  0  0  0  0  0  0  0  0
    0.5420   14.8320   22.6650 O   0  0  0  0  0  0  0  0  0  0  0  0
   -0.7970   12.0340   21.8840 C   0  0  0  0  0  0  0  0  0  0  0  0
   -0.2810   11.3170   20.8010 C   0  0  0  0  0  3  0  0  0  0  0  0
   -0.8720   11.3840   23.0270 N   0  0  0  0  0  0  0  0  0  0  0  0
    0.1300   10.0050   20.9040 C   0  0  0  0  0  3  0  0  0  0  0  0
   -0.4980   10.1050   23.2300 C   0  0  0  0  0  3  0  0  0  0  0  0
    0.0110    9.4010   22.1580 C   0  0  0  0  0  3  0  0  0  0  0  0
   -4.4850   12.2440   18.8890 C   0  0  0  0  0  2  0  0  0  0  0  0
   -3.8100   11.4650   17.8160 C   0  0  0  0  0  0  0  0  0  0  0  0
   -2.7020   10.7110   18.1000 C   0  0  0  0  0  3  0  0  0  0  0  0
   -4.3430   11.5350   16.5340 C   0  0  0  0  0  3  0  0  0  0  0  0
   -2.0770    9.9880   17.0790 C   0  0  0  0  0  3  0  0  0  0  0  0
   -3.7090   10.8100   15.5300 C   0  0  0  0  0  3  0  0  0  0  0  0
   -2.6000   10.0530   15.8030 C   0  0  0  0  0  3  0  0  0  0  0  0
  2  1  2  0  0  0  0
  3  2  1  0  0  0  0
  4  3  1  0  0  0  0
  5  2  1  6  0  0  0
  5  6  1  0  0  0  0
  6  8  1  0  0  0  0
  7  5  1  0  0  0  0
  7 12  1  1  0  0  0
  7  9  1  0  0  0  0
  8 10  1  0  0  0  0
  9  8  1  0  0  0  0
 11  9  2  0  0  0  0
 12 14  1  0  0  0  0
 13 15  1  0  0  0  0
 13 12  2  0  0  0  0
 14 16  2  0  0  0  0
 15 17  2  0  0  0  0
 17 16  1  0  0  0  0
 18  3  1  0  0  0  0
 19 20  1  0  0  0  0
 19 18  1  0  0  0  0
 21 19  2  0  0  0  0
 22 20  2  0  0  0  0
 23 24  2  0  0  0  0
 23 21  1  0  0  0  0
 24 22  1  0  0  0  0
M  END
>  <MODEL>
1

>  <REMARK>
 VINA RESULT:    -5.159      0.000      0.000
 INTER + INTRA:          -7.764
 INTER:                  -6.366
 INTRA:                  -1.398
 UNBOUND:                -1.398
 SMILES O=C(NCc1ccccc1)[C@H]1CNC(=O)[C@H]1c1ccccn1
 SMILES IDX 1 1 2 2 3 3 11 5 12 6 16 7 13 8 14 9 15 11 17 12 18 13 22 14
 SMILES IDX 19 15 21 16 20 17 4 18 5 19 6 20 10 21 7 22 9 23 8 24
 H PARENT 3 4 13 10
 Flexibility Score: inf

>  <TORSDO>
F 4

$$$$
UD02
 OpenBabel07182316283D

 16 17  0  0  0  0  0  0  0  0999 V2000
    6.2320    5.3950   17.1800 N   0  0  0  0  0  0  0  0  0  0  0  0
    7.1020    4.9190   16.1690 C   0  0  0  0  0  1  0  0  0  0  0  0
    6.8350    6.2910   18.1160 C   0  0  0  0  0  3  0  0  0  0  0  0
    7.5800    7.4510   17.5120 C   0  0  0  0  0  1  0  0  0  0  0  0
    7.7920    5.6010   19.0640 C   0  0  0  0  0  1  0  0  0  0  0  0
    4.9590    5.8800   16.7980 C   0  0  0  0  0  2  0  0  0  0  0  0
    3.8590    5.6780   17.7500 C   0  0  0  0  0  0  0  0  0  0  0  0
    3.2360    6.5700   18.5810 C   0  0  0  0  0  3  0  0  0  0  0  0
    3.2390    4.4650   17.9500 C   0  0  0  0  0  0  0  0  0  0  0  0
    2.2780    5.9120   19.2520 N   0  0  0  0  0  0  0  0  0  0  0  0
    2.2510    4.6130   18.8900 C   0  0  0  0  0  0  0  0  0  0  0  0
    3.4110    3.1890   17.4140 C   0  0  0  0  0  3  0  0  0  0  0  0
    1.6300    6.3370   19.9660 H   0  0  0  0  0  0  0  0  0  0  0  0
    1.4650    3.5470   19.2830 C   0  0  0  0  0  3  0  0  0  0  0  0
    2.6300    2.1260   17.8060 C   0  0  0  0  0  3  0  0  0  0  0  0
    1.6350    2.3010   18.7590 C   0  0  0  0  0  3  0  0  0  0  0  0
  1  3  1  0  0  0  0
  2  1  1  0  0  0  0
  3  5  1  0  0  0  0
  4  3  1  0  0  0  0
  6  1  1  0  0  0  0
  6  7  1  0  0  0  0
  7  9  1  0  0  0  0
  7  8  2  0  0  0  0
  8 10  1  0  0  0  0
  9 11  1  0  0  0  0
 10 13  1  0  0  0  0
 11 10  1  0  0  0  0
 11 14  2  0  0  0  0
 12 15  1  0  0  0  0
 12  9  2  0  0  0  0
 15 16  2  0  0  0  0
 16 14  1  0  0  0  0
M  END
>  <MODEL>
1

>  <REMARK>
 VINA RESULT:    -4.717      0.000      0.000
 INTER + INTRA:          -6.021
 INTER:                  -5.544
 INTRA:                  -0.477
 UNBOUND:                -0.477
 SMILES CC(C)N(C)Cc1c[nH]c2ccccc12
 SMILES IDX 4 1 5 2 2 3 1 4 3 5 6 6 7 7 8 8 15 9 9 10 10 11 14 12 11 14
 SMILES IDX 13 15 12 16
 H PARENT 9 13
 Flexibility Score: inf

>  <TORSDO>
F 3

$$$$
UD03
 OpenBabel07182316283D

 16 17  0  0  0  0  0  0  0  0999 V2000
    4.5890    4.5860   17.7730 C   0  0  0  0  0  0  0  0  0  0  0  0
    5.4090    5.6480   18.0680 C   0  0  0  0  0  3  0  0  0  0  0  0
    6.4330    5.9450   17.1640 C   0  0  0  0  0  0  0  0  0  0  0  0
    6.6510    5.2290   16.0070 C   0  0  0  0  0  0  0  0  0  0  0  0
    5.8110    4.1700   15.7370 C   0  0  0  0  0  3  0  0  0  0  0  0
    4.7800    3.8540   16.6280 C   0  0  0  0  0  3  0  0  0  0  0  0
    7.5710    7.4180   17.5760 Br  0  0  0  0  0  0  0  0  0  0  0  0
    3.5490    4.2370   18.6480 N   0  0  0  0  0  0  0  0  0  0  0  0
    1.8780    2.7070   21.7530 C   0  0  0  0  0  1  0  0  0  0  0  0
    1.5770    3.5200   20.5880 N   0  0  0  0  0  0  0  0  0  0  0  0
    1.8590    2.7340   19.4130 C   0  0  0  0  0  2  0  0  0  0  0  0
    2.2880    4.7720   20.6030 C   0  0  0  0  0  2  0  0  0  0  0  0
    3.3560    2.8710   19.1350 C   0  0  0  0  0  2  0  0  0  0  0  0
    2.5740    5.2050   19.1570 C   0  0  0  0  0  2  0  0  0  0  0  0
    7.6990    5.5730   15.1310 O   0  0  0  0  0  0  0  0  0  0  0  0
    7.5930    5.1320   13.7800 C   0  0  0  0  0  1  0  0  0  0  0  0
  1  2  1  0  0  0  0
  1  8  1  0  0  0  0
  3  7  1  0  0  0  0
  3  2  2  0  0  0  0
  4  3  1  0  0  0  0
  5  4  2  0  0  0  0
  5  6  1  0  0  0  0
  6  1  2  0  0  0  0
  8 13  1  0  0  0  0
  8 14  1  0  0  0  0
 10 12  1  0  0  0  0
 10  9  1  0  0  0  0
 11 10  1  0  0  0  0
 13 11  1  0  0  0  0
 14 12  1  0  0  0  0
 15  4  1  0  0  0  0
 16 15  1  0  0  0  0
M  END
>  <MODEL>
1

>  <REMARK>
 VINA RESULT:    -4.248      0.000      0.000
 INTER + INTRA:          -5.089
 INTER:                  -4.745
 INTRA:                  -0.344
 UNBOUND:                -0.344
 SMILES COc1ccc(N2CCN(C)CC2)cc1Br
 SMILES IDX 6 1 14 2 15 3 3 4 4 5 5 6 16 7 7 8 11 9 10 10 9 11 12 12
 SMILES IDX 8 13 13 14 2 15 1 16
 H PARENT
 Flexibility Score: inf

>  <TORSDO>
F 2

$$$$
UD04
 OpenBabel07182316283D

 15 17  0  0  1  0  0  0  0  0999 V2000
    2.2320    2.6910   18.5200 C   0  0  0  0  0  3  0  0  0  0  0  0
    1.8200    4.0580   18.1020 C   0  0  0  0  0  2  0  0  0  0  0  0
    2.9910    5.0010   18.1510 C   0  0  0  0  0  2  0  0  0  0  0  0
    3.9950    4.5480   17.1260 C   0  0  2  0  0  3  0  0  0  0  0  0
    4.3700    3.1050   17.2390 C   0  0  0  0  0  2  0  0  0  0  0  0
    3.6140    2.2960   18.2050 C   0  0  0  0  0  3  0  0  0  0  0  0
    5.1440    5.4350   17.0710 N   0  0  1  0  0  0  0  0  0  0  0  0
    5.4550    6.3640   16.1380 C   0  0  0  0  0  2  0  0  0  0  0  0
    6.1460    5.4930   17.9790 C   0  0  2  0  0  3  0  0  0  0  0  0
    6.6020    6.9780   16.4450 N   0  0  0  0  0  0  0  0  0  0  0  0
    7.0580    6.4640   17.5790 C   0  0  0  0  0  0  0  0  0  0  0  0
    6.5710    4.9420   19.1310 N   0  0  0  0  0  0  0  0  0  0  0  0
    8.0200    6.4770   18.5060 N   0  0  0  0  0  0  0  0  0  0  0  0
    7.7270    5.5630   19.4390 C   0  0  0  0  0  3  0  0  0  0  0  0
    6.0810    4.1890   19.6540 H   0  0  0  0  0  0  0  0  0  0  0  0
  2  3  1  0  0  0  0
  2  1  1  0  0  0  0
  4  5  1  1  0  0  0
  4  3  1  0  0  0  0
  5  6  1  0  0  0  0
  6  1  2  0  0  0  0
  7  8  1  1  0  0  0
  7  4  1  0  0  0  0
  7  9  1  0  0  0  0
  8 10  1  0  0  0  0
  9 11  1  6  0  0  0
  9 12  1  0  0  0  0
 10 11  2  0  0  0  0
 11 13  1  0  0  0  0
 12 14  1  0  0  0  0
 12 15  1  0  0  0  0
 13 14  2  0  0  0  0
M  END
>  <MODEL>
1

>  <REMARK>
 VINA RESULT:    -4.594      0.000      0.000
 INTER + INTRA:          -5.204
 INTER:                  -4.862
 INTRA:                  -0.341
 UNBOUND:                -0.341
 SMILES c1nc2ncn(C3CCCCC3)c2[nH]1
 SMILES IDX 10 1 9 2 8 3 7 4 12 5 11 6 6 7 5 8 13 9 4 10 3 11 14 12 2 13
 SMILES IDX 1 14
 H PARENT 14 15
 Flexibility Score: inf

>  <TORSDO>
F 1

$$$$
UD05
 OpenBabel07182316283D

 17 18  0  0  0  0  0  0  0  0999 V2000
   -3.1200   12.2500   19.4630 C   0  0  0  0  0  0  0  0  0  0  0  0
   -2.1440   11.8000   18.6080 C   0  0  0  0  0  3  0  0  0  0  0  0
   -2.4900   11.3840   17.3360 C   0  0  0  0  0  3  0  0  0  0  0  0
   -3.7840   11.3900   16.8590 C   0  0  0  0  0  0  0  0  0  0  0  0
   -4.7370   11.8490   17.7490 C   0  0  0  0  0  3  0  0  0  0  0  0
   -4.4220   12.2700   19.0190 C   0  0  0  0  0  3  0  0  0  0  0  0
   -2.7680   12.6890   20.7760 N   0  0  0  0  0  0  0  0  0  0  0  0
   -2.9110   15.0620   25.1490 C   0  0  0  0  0  1  0  0  0  0  0  0
   -1.8020   14.6180   24.2620 C   0  0  0  0  0  0  0  0  0  0  0  0
   -0.6240   15.0520   24.4120 O   0  0  0  0  0  0  0  0  0  0  0  0
   -2.0550   13.6940   23.2260 N   0  0  0  0  0  0  0  0  0  0  0  0
   -0.9710   13.2740   22.3730 C   0  0  0  0  0  2  0  0  0  0  0  0
   -3.3920   13.1810   23.0290 C   0  0  0  0  0  2  0  0  0  0  0  0
   -1.4330   12.4020   21.2390 C   0  0  0  0  0  2  0  0  0  0  0  0
   -3.7410   13.3780   21.5680 C   0  0  0  0  0  2  0  0  0  0  0  0
   -4.0970   10.9640   15.5710 O   0  0  0  0  0  0  0  0  0  0  0  0
   -3.1380   10.2600   14.8290 C   0  0  0  0  0  1  0  0  0  0  0  0
  1  7  1  0  0  0  0
  2  1  2  0  0  0  0
  3  2  1  0  0  0  0
  4  3  2  0  0  0  0
  4  5  1  0  0  0  0
  5  6  2  0  0  0  0
  6  1  1  0  0  0  0
  7 14  1  0  0  0  0
  7 15  1  0  0  0  0
  9 10  2  0  0  0  0
  9  8  1  0  0  0  0
 11  9  1  0  0  0  0
 12 11  1  0  0  0  0
 13 11  1  0  0  0  0
 14 12  1  0  0  0  0
 15 13  1  0  0  0  0
 16  4  1  0  0  0  0
 17 16  1  0  0  0  0
M  END
>  <MODEL>
1

>  <REMARK>
 VINA RESULT:    -3.799      0.000      0.000
 INTER + INTRA:          -4.557
 INTER:                  -4.243
 INTRA:                  -0.314
 UNBOUND:                -0.314
 SMILES COc1ccc(N2CCN(C(C)=O)CC2)cc1
 SMILES IDX 6 1 5 2 4 3 3 4 17 5 16 6 7 7 12 8 11 9 13 10 10 11 9 12
 SMILES IDX 14 13 8 14 15 15 2 16 1 17
 H PARENT
 Flexibility Score: inf

>  <TORSDO>
F 2

$$$$
UD06
 OpenBabel07182316283D

 14 15  0  0  0  0  0  0  0  0999 V2000
    3.3430    4.0340   19.7630 C   0  0  0  0  0  1  0  0  0  0  0  0
    3.8260    3.9140   18.3920 N   0  0  0  0  0  0  0  0  0  0  0  0
    3.2700    3.1910   17.3890 C   0  0  0  0  0  3  0  0  0  0  0  0
    3.9820    3.3130   16.2650 N   0  0  0  0  0  0  0  0  0  0  0  0
    5.0260    4.1340   16.5360 C   0  0  0  0  0  0  0  0  0  0  0  0
    4.9150    4.4990   17.8620 C   0  0  0  0  0  0  0  0  0  0  0  0
    5.8440    5.3410   18.4390 C   0  0  0  0  0  0  0  0  0  0  0  0
    5.7460    5.6820   19.6650 O   0  0  0  0  0  0  0  0  0  0  0  0
    6.8490    5.7830   17.6600 N   0  0  0  0  0  0  0  0  0  0  0  0
    6.9240    5.4060   16.3700 C   0  0  0  0  0  0  0  0  0  0  0  0
    7.8790    5.8380   15.6670 O   0  0  0  0  0  0  0  0  0  0  0  0
    6.0480    4.5970   15.7790 N   0  0  0  0  0  0  0  0  0  0  0  0
    6.1530    4.2000   14.3760 C   0  0  0  0  0  1  0  0  0  0  0  0
    7.8190    6.6690   18.2810 C   0  0  0  0  0  1  0  0  0  0  0  0
  2  1  1  0  0  0  0
  3  2  1  0  0  0  0
  4  5  1  0  0  0  0
  4  3  2  0  0  0  0
  5  6  2  0  0  0  0
  6  2  1  0  0  0  0
  6  7  1  0  0  0  0
  7  8  2  0  0  0  0
  9 14  1  0  0  0  0
  9  7  1  0  0  0  0
 10  9  1  0  0  0  0
 11 10  2  0  0  0  0
 12 10  1  0  0  0  0
 12  5  1  0  0  0  0
 13 12  1  0  0  0  0
M  END
>  <MODEL>
1

>  <REMARK>
 VINA RESULT:    -3.141      0.000      0.000
 INTER + INTRA:          -3.141
 INTER:                  -3.141
 INTRA:                   0.000
 UNBOUND:                 0.000
 SMILES Cn1c(=O)c2c(ncn2C)n(C)c1=O
 SMILES IDX 10 1 9 2 8 3 7 4 6 5 5 6 3 7 4 8 2 9 13 10 14 11 11 12 12 13
 SMILES IDX 1 14
 H PARENT
 Flexibility Score: inf

>  <TORSDO>
F 0

$$$$
UD07
 OpenBabel07182316283D

 15 16  0  0  0  0  0  0  0  0999 V2000
    4.4470    5.9790   18.0530 C   0  0  0  0  0  0  0  0  0  0  0  0
    3.7530    7.0990   17.6210 C   0  0  0  0  0  3  0  0  0  0  0  0
    2.6300    7.5390   18.2830 C   0  0  0  0  0  0  0  0  0  0  0  0
    2.1480    6.8870   19.3970 C   0  0  0  0  0  3  0  0  0  0  0  0
    2.8040    5.7790   19.8510 C   0  0  0  0  0  0  0  0  0  0  0  0
    3.9390    5.3470   19.1720 C   0  0  0  0  0  3  0  0  0  0  0  0
    1.7520    8.9620   17.7330 Cl  0  0  0  0  0  0  0  0  0  0  0  0
    5.5990    5.4930   17.4140 N   0  0  0  0  0  0  0  0  0  0  0  0
    6.9100    5.7460   17.9250 C   0  0  0  0  0  2  0  0  0  0  0  0
    7.7480    4.5420   17.4670 C   0  0  0  0  0  2  0  0  0  0  0  0
    7.9260    4.6680   16.1080 O   0  0  0  0  0  0  0  0  0  0  0  0
    5.5040    4.7180   16.2140 C   0  0  0  0  0  2  0  0  0  0  0  0
    6.7750    4.7410   15.3820 C   0  0  0  0  0  2  0  0  0  0  0  0
    2.3390    5.1080   20.9680 O   0  0  0  0  0  0  0  0  0  0  0  0
    1.7170    3.8550   20.7990 C   0  0  0  0  0  1  0  0  0  0  0  0
  1  6  1  0  0  0  0
  2  1  2  0  0  0  0
  2  3  1  0  0  0  0
  3  4  2  0  0  0  0
  4  5  1  0  0  0  0
  5 14  1  0  0  0  0
  6  5  2  0  0  0  0
  7  3  1  0  0  0  0
  8  9  1  0  0  0  0
  8  1  1  0  0  0  0
 10  9  1  0  0  0  0
 11 10  1  0  0  0  0
 12  8  1  0  0  0  0
 13 11  1  0  0  0  0
 13 12  1  0  0  0  0
 15 14  1  0  0  0  0
M  END
>  <MODEL>
1

>  <REMARK>
 VINA RESULT:    -4.222      0.000      0.000
 INTER + INTRA:          -5.021
 INTER:                  -4.716
 INTRA:                  -0.305
 UNBOUND:                -0.305
 SMILES COc1cc(Cl)cc(N2CCOCC2)c1
 SMILES IDX 8 1 7 2 5 3 4 4 3 5 15 6 6 7 9 8 10 9 11 10 12 11 14 12
 SMILES IDX 13 13 2 14 1 15
 H PARENT
 Flexibility Score: inf

>  <TORSDO>
F 2

$$$$
UD08
 OpenBabel07182316283D

 18 18  0  0  0  0  0  0  0  0999 V2000
    5.9590    5.6670   16.3890 S   0  0  0  0  0  0  0  0  0  0  0  0
    5.5270    6.7430   15.4330 O   0  0  0  0  0  0  0  0  0  0  0  0
    6.8630    4.7110   15.6600 O   0  0  0  0  0  0  0  0  0  0  0  0
    4.5330    4.8790   16.9800 C   0  0  0  0  0  0  0  0  0  0  0  0
    3.7870    7.1220   17.7510 C   0  0  0  0  0  1  0  0  0  0  0  0
    3.5740    5.6440   17.6030 C   0  0  0  0  0  0  0  0  0  0  0  0
    2.4050    5.1000   18.1050 C   0  0  0  0  0  3  0  0  0  0  0  0
    4.2900    3.5260   16.8670 C   0  0  0  0  0  3  0  0  0  0  0  0
    2.2180    3.7470   17.9630 C   0  0  0  0  0  0  0  0  0  0  0  0
    3.1430    2.9310   17.3480 C   0  0  0  0  0  3  0  0  0  0  0  0
    1.0700    3.1800   18.4520 F   0  0  0  0  0  0  0  0  0  0  0  0
    6.8800    6.3900   17.6500 N   0  0  0  0  0  0  0  0  0  0  0  0
    7.5000    5.5070   18.5840 C   0  0  0  0  0  0  0  0  0  0  0  0
    7.0060    7.3990   17.7640 H   0  0  0  0  0  0  0  0  0  0  0  0
    7.3620    4.2450   18.4700 O   0  0  0  0  0  0  0  0  0  0  0  0
    8.2850    5.9810   19.6670 N   0  0  0  0  0  0  0  0  0  0  0  0
    9.2720    6.3100   19.5510 H   0  0  0  0  0  0  0  0  0  0  0  0
    7.8750    6.0110   20.6370 H   0  0  0  0  0  0  0  0  0  0  0  0
  1  4  1  0  0  0  0
  1 12  1  0  0  0  0
  2  1  2  0  0  0  0
  3  1  2  0  0  0  0
  4  6  1  0  0  0  0
  6  5  1  0  0  0  0
  6  7  2  0  0  0  0
  8  4  2  0  0  0  0
  8 10  1  0  0  0  0
  9  7  1  0  0  0  0
  9 11  1  0  0  0  0
 10  9  2  0  0  0  0
 12 14  1  0  0  0  0
 12 13  1  0  0  0  0
 13 16  1  0  0  0  0
 15 13  2  0  0  0  0
 16 18  1  0  0  0  0
 17 16  1  0  0  0  0
M  END
>  <MODEL>
1

>  <REMARK>
 VINA RESULT:    -4.945      0.000      0.000
 INTER + INTRA:          -5.224
 INTER:                  -5.524
 INTRA:                   0.300
 UNBOUND:                 0.300
 SMILES Cc1cc(F)ccc1S(=O)(=O)NC(N)=O
 SMILES IDX 9 1 10 2 11 3 8 4 1 5 2 6 3 7 7 8 4 9 6 10 5 11 12 12 13 13
 SMILES IDX 15 15 14 16
 H PARENT 12 14 14 17 14 18
 Flexibility Score: inf

>  <TORSDO>
F 2

$$$$
UD09
 OpenBabel07182316283D

 17 17  0  0  0  0  0  0  0  0999 V2000
    3.6640    4.5690   19.0370 C   0  0  0  0  0  0  0  0  0  0  0  0
    3.1460    5.4940   18.1670 C   0  0  0  0  0  3  0  0  0  0  0  0
    3.9690    6.4050   17.4950 C   0  0  0  0  0  3  0  0  0  0  0  0
    5.3180    6.3950   17.6920 C   0  0  0  0  0  3  0  0  0  0  0  0
    5.8780    5.4900   18.5510 C   0  0  0  0  0  0  0  0  0  0  0  0
    5.0560    4.6130   19.1920 C   0  0  0  0  0  3  0  0  0  0  0  0
    2.9090    3.6030   19.7550 N   0  0  0  0  0  0  0  0  0  0  0  0
    1.5000    2.6200   21.5740 C   0  0  0  0  0  1  0  0  0  0  0  0
    2.2510    3.7810   20.9730 C   0  0  0  0  0  0  0  0  0  0  0  0
    2.2860    4.8810   21.5490 O   0  0  0  0  0  0  0  0  0  0  0  0
    2.8330    2.6290   19.3180 H   0  0  0  0  0  0  0  0  0  0  0  0
    7.6080    5.4950   18.7880 S   0  0  0  0  0  0  0  0  0  0  0  0
    8.2510    4.3260   18.0550 O   0  0  0  0  0  0  0  0  0  0  0  0
    8.1610    6.7370   18.1640 O   0  0  0  0  0  0  0  0  0  0  0  0
    8.0160    5.3850   20.4630 N   0  0  0  0  0  0  0  0  0  0  0  0
    8.8130    6.0570   20.6310 H   0  0  0  0  0  0  0  0  0  0  0  0
    8.4080    4.4370   20.6810 H   0  0  0  0  0  0  0  0  0  0  0  0
  1  6  1  0  0  0  0
  1  7  1  0  0  0  0
  2  1  2  0  0  0  0
  3  4  2  0  0  0  0
  3  2  1  0  0  0  0
  4  5  1  0  0  0  0
  5 12  1  0  0  0  0
  5  6  2  0  0  0  0
  7  9  1  0  0  0  0
  9 10  2  0  0  0  0
  9  8  1  0  0  0  0
 11  7  1  0  0  0  0
 12 15  1  0  0  0  0
 13 12  2  0  0  0  0
 14 12  2  0  0  0  0
 15 16  1  0  0  0  0
 15 17  1  0  0  0  0
M  END
>  <MODEL>
1

>  <REMARK>
 VINA RESULT:    -4.890      0.000      0.000
 INTER + INTRA:          -5.900
 INTER:                  -5.604
 INTRA:                  -0.296
 UNBOUND:                -0.296
 SMILES CC(=O)Nc1cccc(S(N)(=O)=O)c1
 SMILES IDX 5 1 6 2 7 3 8 4 9 5 14 6 4 7 1 8 2 9 3 10 10 12 12 13 13 14
 SMILES IDX 11 15
 H PARENT 4 11 11 16 11 17
 Flexibility Score: inf

>  <TORSDO>
F 3

$$$$
UD10
 OpenBabel07182316283D

 20 17  0  0  0  0  0  0  0  0999 V2000
    4.7760    6.3470   17.3530 C   0  0  0  0  0  1  0  0  0  0  0  0
    6.0210    5.8800   17.4430 *   0  0  0  0  0  0  0  0  0  0  0  0
    3.5590    5.7980   17.8500 N   0  0  0  0  0  0  0  0  0  0  0  0
    2.4740    6.6670   18.1260 C   0  0  0  0  0  3  0  0  0  0  0  0
    2.5640    8.1400   18.0540 C   0  0  0  0  0  2  0  0  0  0  0  0
    2.4850    7.4710   19.3800 C   0  0  0  0  0  2  0  0  0  0  0  0
    3.3450    4.4140   18.0940 C   0  0  0  0  0  0  0  0  0  0  0  0
    4.2390    3.3980   18.4030 C   0  0  0  0  0  0  0  0  0  0  0  0
    2.0180    4.0860   17.9940 C   0  0  0  0  0  3  0  0  0  0  0  0
    3.7980    2.1060   18.6000 C   0  0  0  0  0  3  0  0  0  0  0  0
    1.5780    2.7870   18.1920 C   0  0  0  0  0  3  0  0  0  0  0  0
    2.4630    1.7700   18.4990 C   0  0  0  0  0  3  0  0  0  0  0  0
    5.6640    3.5430   18.5510 N   0  0  0  0  0  2  0  0  0  0  0  0
    6.4410    4.6350   18.1060 *   0  0  0  0  0  0  0  0  0  0  0  0
    6.1170    2.7570   19.0300 H   0  0  0  0  0  0  0  0  0  0  0  0
    7.6890    4.5390   18.3040 O   0  0  0  0  0 15  0  0  0  0  0  0
    7.0660    6.6810   16.8250 C   0  0  0  0  0  3  0  0  0  0  0  0
    7.2000    7.8880   17.1110 O   0  0  0  0  0  0  0  0  0  0  0  0
    7.9420    6.1320   15.9010 O   0  0  0  0  0  0  0  0  0  0  0  0
    8.5100    6.6830   15.2680 H   0  0  0  0  0  0  0  0  0  0  0  0
  1  3  1  0  0  0  0
  3  7  1  0  0  0  0
  3  4  1  0  0  0  0
  4  6  1  0  0  0  0
  5  4  1  0  0  0  0
  5  6  1  0  0  0  0
  7  8  1  0  0  0  0
  8 13  1  0  0  0  0
  8 10  2  0  0  0  0
  9  7  2  0  0  0  0
  9 11  1  0  0  0  0
 11 12  2  0  0  0  0
 12 10  1  0  0  0  0
 13 15  1  0  0  0  0
 17 18  2  0  0  0  0
 19 17  1  0  0  0  0
 20 19  1  0  0  0  0
M  END
>  <MODEL>
1

>  <REMARK>
 VINA RESULT:    -4.834      0.000      0.000
 INTER + INTRA:          -5.862
 INTER:                  -6.388
 INTRA:                   0.526
 UNBOUND:                 0.526
 SMILES O=C(O)C1=CN(C2CC2)c2ccccc2NC1=O
 SMILES IDX 5 1 4 2 6 4 7 5 8 6 9 7 10 8 15 9 11 10 14 11 12 12 13 13
 SMILES IDX 16 14 17 15 18 17 2 19 1 20 3 21
 H PARENT 16 16 3 22
 Flexibility Score: 60.00

>  <TORSDO>
F 3

$$$$
VN01
 OpenBabel07202315313D

 26 28  0  0  1  0  0  0  0  0999 V2000
    2.5370    5.8370   20.1550 C   0  0  2  0  0  3  0  0  0  0  0  0
    3.6790    4.9690   19.6220 C   0  0  1  0  0  3  0  0  0  0  0  0
    2.7180    3.8320   19.7050 C   0  0  2  0  0  0  0  0  0  0  0  0
    1.6250    4.8460   19.4080 C   0  0  0  0  0  0  0  0  0  0  0  0
    1.5190    5.2220   18.1040 F   0  0  0  0  0  0  0  0  0  0  0  0
    0.4460    4.6500   20.0900 F   0  0  0  0  0  0  0  0  0  0  0  0
    2.4800    7.2990   19.6350 C   0  0  0  0  0  3  0  0  0  0  0  0
    3.1860    7.7450   18.7860 H   0  0  0  0  0  0  0  0  0  0  0  0
    1.6330    8.3630   20.4300 C   0  0  0  0  0  0  0  0  0  0  0  0
    1.3200    8.1680   21.7580 C   0  0  0  0  0  3  0  0  0  0  0  0
    1.1800    9.5120   19.8270 C   0  0  0  0  0  0  0  0  0  0  0  0
    0.5690    9.1090   22.4610 C   0  0  0  0  0  0  0  0  0  0  0  0
    0.4370   10.4430   20.5230 C   0  0  0  0  0  3  0  0  0  0  0  0
    1.6060    9.9000   17.8020 I   0  0  0  0  0  0  0  0  0  0  0  0
    0.1100   10.2630   21.8720 C   0  0  0  0  0  0  0  0  0  0  0  0
   -0.0850    9.5730   23.7060 C   0  0  0  0  0  2  0  0  0  0  0  0
   -0.5170   10.7290   23.0210 O   0  0  0  0  0  0  0  0  0  0  0  0
    4.1910    5.3600   18.3570 N   0  0  0  0  0  0  0  0  0  0  0  0
    4.7760    6.1980   18.3310 H   0  0  0  0  0  0  0  0  0  0  0  0
    4.4870    4.5800   17.7340 H   0  0  0  0  0  0  0  0  0  0  0  0
    2.5730    3.4440   21.1370 C   0  0  0  0  0  0  0  0  0  0  0  0
    2.4430    3.1350   22.2420 N   0  0  0  0  0  0  0  0  0  0  0  0
    2.8330    2.6840   18.7920 C   0  0  0  0  0  0  0  0  0  0  0  0
    2.9070    2.9690   17.3320 C   0  0  0  0  0  1  0  0  0  0  0  0
    1.5780    1.8210   19.0030 C   0  0  0  0  0  1  0  0  0  0  0  0
    3.9970    1.7670   19.1230 C   0  0  0  0  0  1  0  0  0  0  0  0
  1  7  1  6  0  0  0
  2 18  1  6  0  0  0
  2  3  1  0  0  0  0
  2  1  1  0  0  0  0
  3 21  1  1  0  0  0
  4  3  1  0  0  0  0
  4  6  1  0  0  0  0
  4  1  1  0  0  0  0
  5  4  1  0  0  0  0
  7  9  1  0  0  0  0
  8  7  1  0  0  0  0
  9 10  1  0  0  0  0
 10 12  2  0  0  0  0
 11  9  2  0  0  0  0
 11 13  1  0  0  0  0
 12 16  1  0  0  0  0
 13 15  2  0  0  0  0
 14 11  1  0  0  0  0
 15 12  1  0  0  0  0
 15 17  1  0  0  0  0
 17 16  1  0  0  0  0
 19 18  1  0  0  0  0
 20 18  1  0  0  0  0
 21 22  3  0  0  0  0
 23 25  1  0  0  0  0
 23 26  1  0  0  0  0
 23  3  1  0  0  0  0
 24 23  1  0  0  0  0
M  END
>  <MODEL>
1

>  <REMARK>
 VINA RESULT:    -4.179      0.000      0.000
 INTER + INTRA:          -3.353
 INTER:                  -5.278
 INTRA:                   1.925
 UNBOUND:                 1.925
 SMILES CC(C)(C)[C@@]1(C#N)[C@@H](N)[C@@H](Bc2cc3c(cc2I)OC3)C1(F)F
 SMILES IDX 10 1 8 2 5 3 21 4 22 5 23 6 11 7 12 9 13 10 17 11 14 12
 SMILES IDX 16 13 18 14 15 15 20 16 19 17 9 18 6 21 7 22 2 23 1 24 3 25
 SMILES IDX 4 26
 H PARENT 11 8 9 19 9 20
 Flexibility Score: inf

>  <TORSDO>
F 5

$$$$
VN02
 OpenBabel07202315313D

 25 27  0  0  1  0  0  0  0  0999 V2000
    2.7580    6.5700   19.2730 C   0  0  0  0  0  3  0  0  0  0  0  0
    2.7320    5.6060   19.9740 H   0  0  0  0  0  0  0  0  0  0  0  0
    3.6690    6.6210   17.9730 C   0  0  2  0  0  3  0  0  0  0  0  0
    3.5450    5.3150   17.2100 C   0  0  1  0  0  3  0  0  0  0  0  0
    5.1260    6.2510   18.2300 C   0  0  0  0  0  0  0  0  0  0  0  0
    4.9810    4.9540   17.5150 C   0  0  1  0  0  0  0  0  0  0  0  0
    2.1020    3.9790   18.0210 I   0  0  0  0  0  0  0  0  0  0  0  0
    5.9510    7.1870   17.6980 F   0  0  0  0  0  0  0  0  0  0  0  0
    5.4150    6.0580   19.5690 F   0  0  0  0  0  0  0  0  0  0  0  0
    5.0180    3.7910   18.4030 C   0  0  0  0  0  0  0  0  0  0  0  0
    5.0620    2.8790   19.1160 N   0  0  0  0  0  0  0  0  0  0  0  0
    5.8500    4.7440   16.3040 C   0  0  0  0  0  0  0  0  0  0  0  0
    5.7180    5.8270   15.2880 C   0  0  0  0  0  1  0  0  0  0  0  0
    5.5770    3.4140   15.6310 C   0  0  0  0  0  1  0  0  0  0  0  0
    7.3180    4.7010   16.7430 C   0  0  0  0  0  1  0  0  0  0  0  0
    1.9610    7.8080   19.7870 C   0  0  0  0  0  0  0  0  0  0  0  0
    1.5950    7.8340   21.1170 C   0  0  0  0  0  3  0  0  0  0  0  0
    1.6380    8.8380   18.9240 C   0  0  0  0  0  0  0  0  0  0  0  0
    0.8910    8.9360   21.5510 C   0  0  0  0  0  0  0  0  0  0  0  0
    0.9340    9.9430   19.3580 C   0  0  0  0  0  3  0  0  0  0  0  0
    0.5710    9.9650   20.6880 C   0  0  0  0  0  0  0  0  0  0  0  0
    0.2150    9.6600   22.6500 C   0  0  0  0  0  2  0  0  0  0  0  0
   -0.0710   10.6680   21.6980 O   0  0  0  0  0  0  0  0  0  0  0  0
    2.0040    8.8180   17.5830 O   0  0  0  0  0  0  0  0  0  0  0  0
    1.6540    8.1330   16.9260 H   0  0  0  0  0  0  0  0  0  0  0  0
  1 16  1  0  0  0  0
  1  2  1  0  0  0  0
  3  5  1  0  0  0  0
  3  1  1  1  0  0  0
  4  6  1  0  0  0  0
  4  3  1  0  0  0  0
  4  7  1  1  0  0  0
  5  9  1  0  0  0  0
  6  5  1  0  0  0  0
  6 10  1  1  0  0  0
  8  5  1  0  0  0  0
 10 11  3  0  0  0  0
 12 15  1  0  0  0  0
 12  6  1  0  0  0  0
 13 12  1  0  0  0  0
 14 12  1  0  0  0  0
 16 17  1  0  0  0  0
 17 19  2  0  0  0  0
 18 20  1  0  0  0  0
 18 16  2  0  0  0  0
 19 22  1  0  0  0  0
 20 21  2  0  0  0  0
 21 19  1  0  0  0  0
 21 23  1  0  0  0  0
 23 22  1  0  0  0  0
 24 18  1  0  0  0  0
 25 24  1  0  0  0  0
M  END
>  <MODEL>
1

>  <REMARK>
 VINA RESULT:    -4.770      0.000      0.000
 INTER + INTRA:          -3.216
 INTER:                  -6.025
 INTRA:                   2.809
 UNBOUND:                 2.809
 SMILES CC(C)(C)[C@]1(C#N)[C@@H](I)[C@@H](Bc2cc3c(cc2O)OC3)C1(F)F
 SMILES IDX 11 1 10 3 8 4 21 5 5 6 9 7 22 8 23 9 6 10 7 11 2 12 1 13
 SMILES IDX 3 14 4 15 12 16 13 17 17 18 14 19 16 20 15 21 20 22 19 23
 SMILES IDX 18 24
 H PARENT 11 2 18 25
 Flexibility Score: inf

>  <TORSDO>
F 5

$$$$
VN03
 OpenBabel07202315313D

 23 25  0  0  1  0  0  0  0  0999 V2000
    0.2100    9.9090   22.0640 I   0  0  0  0  0  0  0  0  0  0  0  0
    1.2300    8.6450   20.7140 C   0  0  0  0  0  0  0  0  0  0  0  0
    1.4230    9.1490   19.4180 C   0  0  0  0  0  0  0  0  0  0  0  0
    2.0960    8.2990   18.5500 C   0  0  0  0  0  3  0  0  0  0  0  0
    2.5520    7.0420   18.9160 C   0  0  0  0  0  0  0  0  0  0  0  0
    2.3480    6.5850   20.1770 C   0  0  0  0  0  0  0  0  0  0  0  0
    1.6800    7.4000   21.0800 C   0  0  0  0  0  3  0  0  0  0  0  0
    2.9180    5.2230   20.3410 C   0  0  0  0  0  2  0  0  0  0  0  0
    3.2540    4.7770   18.9620 C   0  0  1  0  0  0  0  0  0  0  0  0
    3.2800    6.0110   18.1410 C   0  0  0  0  0  2  0  0  0  0  0  0
    0.9630   10.4170   19.0510 N   0  0  0  0  0  0  0  0  0  0  0  0
   -0.2620   11.0440   18.6770 C   0  0  1  0  0  3  0  0  0  0  0  0
    1.5730   11.7710   18.8660 C   0  0  0  0  0  3  0  0  0  0  0  0
    0.4760   11.9350   17.8990 O   0  0  0  0  0  0  0  0  0  0  0  0
    2.4340   12.4170   19.3500 H   0  0  0  0  0  0  0  0  0  0  0  0
   -1.4160   10.0070   17.7430 S   0  0  0  0  0  0  0  0  0  0  0  0
   -2.3290   10.8940   17.1000 H   0  0  0  0  0  0  0  0  0  0  0  0
    4.5850    4.1520   18.8900 C   0  0  0  0  0  0  0  0  0  0  0  0
    5.6280    3.6820   18.8420 N   0  0  0  0  0  0  0  0  0  0  0  0
    2.2450    3.8100   18.3710 C   0  0  0  0  0  0  0  0  0  0  0  0
    2.9780    2.6540   17.7310 C   0  0  0  0  0  1  0  0  0  0  0  0
    1.3850    3.2620   19.4900 C   0  0  0  0  0  1  0  0  0  0  0  0
    1.3730    4.4400   17.3280 C   0  0  0  0  0  1  0  0  0  0  0  0
  2  7  1  0  0  0  0
  2  1  1  0  0  0  0
  3  2  2  0  0  0  0
  4  5  2  0  0  0  0
  4  3  1  0  0  0  0
  5  6  1  0  0  0  0
  6  8  1  0  0  0  0
  6  7  2  0  0  0  0
  9 18  1  6  0  0  0
  9  8  1  0  0  0  0
 10  5  1  0  0  0  0
 10  9  1  0  0  0  0
 11  3  1  0  0  0  0
 12 16  1  6  0  0  0
 12 11  1  0  0  0  0
 13 11  1  0  0  0  0
 13 15  1  0  0  0  0
 14 12  1  0  0  0  0
 14 13  1  0  0  0  0
 17 16  1  0  0  0  0
 19 18  3  0  0  0  0
 20  9  1  0  0  0  0
 20 22  1  0  0  0  0
 21 20  1  0  0  0  0
 23 20  1  0  0  0  0
M  END
>  <MODEL>
1

>  <REMARK>
 VINA RESULT:    -4.072      0.000      0.000
 INTER + INTRA:          -4.580
 INTER:                  -4.905
 INTRA:                   0.325
 UNBOUND:                 0.325
 SMILES CC(C)(C)[C@]1(C#N)Cc2cc(I)c(N3BO[C@H]3S)cc2C1
 SMILES IDX 12 1 11 2 13 3 19 4 20 5 9 6 10 7 8 8 5 9 21 10 14 11 17 12
 SMILES IDX 15 13 16 14 18 16 6 18 7 19 2 20 1 21 3 22 4 23
 H PARENT 15 15 18 17
 Flexibility Score: inf

>  <TORSDO>
F 4

$$$$
VN04
 OpenBabel07202315313D

 25 27  0  0  1  0  0  0  0  0999 V2000
   -4.4220   13.3930   22.2490 C   0  0  1  0  0  3  0  0  0  0  0  0
   -5.5040   14.4080   22.2080 C   0  0  2  0  0  3  0  0  0  0  0  0
   -5.9210   13.7260   20.9010 C   0  0  1  0  0  0  0  0  0  0  0  0
   -4.4630   13.4580   20.7030 C   0  0  0  0  0  0  0  0  0  0  0  0
   -3.6490   14.4650   20.3100 F   0  0  0  0  0  0  0  0  0  0  0  0
   -4.2650   12.2270   20.1220 F   0  0  0  0  0  0  0  0  0  0  0  0
   -2.8970   13.6100   23.0450 S   0  0  0  0  0  0  0  0  0  0  0  0
   -1.5330   12.6180   22.5970 C   0  0  0  0  0  0  0  0  0  0  0  0
   -1.4320   11.3190   23.0220 C   0  0  0  0  0  3  0  0  0  0  0  0
   -0.5100   13.1240   21.8340 C   0  0  0  0  0  0  0  0  0  0  0  0
   -0.3660   10.5090   22.7200 C   0  0  0  0  0  0  0  0  0  0  0  0
    0.5960   12.3280   21.5030 C   0  0  0  0  0  3  0  0  0  0  0  0
   -0.4440   15.1100   21.1390 I   0  0  0  0  0  0  0  0  0  0  0  0
    0.6590   11.0090   21.9560 C   0  0  0  0  0  0  0  0  0  0  0  0
    0.3240    9.2060   22.8140 C   0  0  0  0  0  2  0  0  0  0  0  0
    1.3320    9.7950   22.0250 O   0  0  0  0  0  0  0  0  0  0  0  0
   -5.1550   15.9130   22.0730 C   0  0  0  0  0  3  0  0  0  0  0  0
   -5.8270   16.6350   21.3830 H   0  0  0  0  0  0  0  0  0  0  0  0
   -4.2770   16.4630   22.6190 H   0  0  0  0  0  0  0  0  0  0  0  0
   -6.5830   12.4520   21.2910 C   0  0  0  0  0  0  0  0  0  0  0  0
   -7.1180   11.4620   21.5870 N   0  0  0  0  0  0  0  0  0  0  0  0
   -6.6860   14.4910   19.9150 C   0  0  0  0  0  0  0  0  0  0  0  0
   -6.0500   15.6810   19.2890 C   0  0  0  0  0  1  0  0  0  0  0  0
   -6.9810   13.5260   18.7500 C   0  0  0  0  0  1  0  0  0  0  0  0
   -8.0580   14.9160   20.4150 C   0  0  0  0  0  1  0  0  0  0  0  0
  1  7  1  1  0  0  0
  2 17  1  6  0  0  0
  2  1  1  0  0  0  0
  3 20  1  1  0  0  0
  3  2  1  0  0  0  0
  4  3  1  0  0  0  0
  4  1  1  0  0  0  0
  5  4  1  0  0  0  0
  6  4  1  0  0  0  0
  8  9  1  0  0  0  0
  8  7  1  0  0  0  0
 10  8  2  0  0  0  0
 11 15  1  0  0  0  0
 11  9  2  0  0  0  0
 12 10  1  0  0  0  0
 12 14  2  0  0  0  0
 13 10  1  0  0  0  0
 14 16  1  0  0  0  0
 14 11  1  0  0  0  0
 16 15  1  0  0  0  0
 17 19  1  0  0  0  0
 18 17  1  0  0  0  0
 20 21  3  0  0  0  0
 22 25  1  0  0  0  0
 22  3  1  0  0  0  0
 23 22  1  0  0  0  0
 24 22  1  0  0  0  0
M  END
>  <MODEL>
1

>  <REMARK>
 VINA RESULT:    -3.547      0.000      0.000
 INTER + INTRA:          -2.317
 INTER:                  -4.480
 INTRA:                   2.163
 UNBOUND:                 2.163
 SMILES B[C@@H]1[C@H](Sc2cc3c(cc2I)OC3)C(F)(F)[C@]1(C#N)C(C)(C)C
 SMILES IDX 3 1 2 2 17 3 14 4 15 5 16 6 4 7 5 8 6 9 10 10 7 11 9 12
 SMILES IDX 11 13 8 14 13 15 12 16 1 17 18 20 19 21 20 22 21 23 22 24
 SMILES IDX 23 25
 H PARENT 1 18 1 19
 Flexibility Score: inf

>  <TORSDO>
F 5

$$$$
VN05
 OpenBabel07202315313D

 25 27  0  0  1  0  0  0  0  0999 V2000
    9.6650   14.3420   20.9580 C   0  0  1  0  0  3  0  0  0  0  0  0
    9.0380   13.0400   20.5150 C   0  0  1  0  0  3  0  0  0  0  0  0
    9.7200   13.0870   19.2090 C   0  0  2  0  0  0  0  0  0  0  0  0
   10.3260   14.4130   19.5810 C   0  0  0  0  0  0  0  0  0  0  0  0
    9.8470   15.5020   18.8800 F   0  0  0  0  0  0  0  0  0  0  0  0
   11.6990   14.4560   19.6130 F   0  0  0  0  0  0  0  0  0  0  0  0
    8.6530   15.5150   21.2370 C   0  0  0  0  0  3  0  0  0  0  0  0
    9.0530   16.6230   21.2720 H   0  0  0  0  0  0  0  0  0  0  0  0
    7.3650   15.1720   22.0710 C   0  0  0  0  0  0  0  0  0  0  0  0
    7.4750   14.7650   23.3770 C   0  0  0  0  0  3  0  0  0  0  0  0
    6.1160   15.2780   21.4960 C   0  0  0  0  0  0  0  0  0  0  0  0
    6.3180   14.4620   24.1120 C   0  0  0  0  0  0  0  0  0  0  0  0
    4.9550   14.9900   22.1800 C   0  0  0  0  0  3  0  0  0  0  0  0
    6.0440   15.9130   19.4730 I   0  0  0  0  0  0  0  0  0  0  0  0
    5.0970   14.5790   23.5070 C   0  0  0  0  0  0  0  0  0  0  0  0
    5.6640   14.0330   25.3430 C   0  0  0  0  0  2  0  0  0  0  0  0
    4.4630   14.1800   24.6450 O   0  0  0  0  0  0  0  0  0  0  0  0
    9.4250   11.6900   21.6270 S   0  0  0  0  0  0  0  0  0  0  0  0
    8.6110   10.5710   21.4570 H   0  0  0  0  0  0  0  0  0  0  0  0
    8.7470   13.2930   18.1150 C   0  0  0  0  0  0  0  0  0  0  0  0
    7.9730   13.4570   17.2700 N   0  0  0  0  0  0  0  0  0  0  0  0
   10.6590   12.0040   18.8290 C   0  0  0  0  0  0  0  0  0  0  0  0
   11.7940   11.7700   19.7510 C   0  0  0  0  0  1  0  0  0  0  0  0
    9.8440   10.7490   18.5500 C   0  0  0  0  0  1  0  0  0  0  0  0
   11.2670   12.4000   17.4730 C   0  0  0  0  0  1  0  0  0  0  0  0
  1  7  1  6  0  0  0
  2  1  1  0  0  0  0
  2 18  1  1  0  0  0
  3 20  1  6  0  0  0
  3  4  1  0  0  0  0
  3  2  1  0  0  0  0
  4  6  1  0  0  0  0
  4  1  1  0  0  0  0
  5  4  1  0  0  0  0
  7  8  1  0  0  0  0
  7  9  1  0  0  0  0
  9 10  1  0  0  0  0
 10 12  2  0  0  0  0
 11  9  2  0  0  0  0
 11 13  1  0  0  0  0
 12 16  1  0  0  0  0
 13 15  2  0  0  0  0
 14 11  1  0  0  0  0
 15 12  1  0  0  0  0
 15 17  1  0  0  0  0
 17 16  1  0  0  0  0
 19 18  1  0  0  0  0
 21 20  3  0  0  0  0
 22  3  1  0  0  0  0
 22 23  1  0  0  0  0
 24 22  1  0  0  0  0
 25 22  1  0  0  0  0
M  END
>  <MODEL>
1

>  <REMARK>
 VINA RESULT:    -3.483      0.000      0.000
 INTER + INTRA:          -1.356
 INTER:                  -4.399
 INTRA:                   3.043
 UNBOUND:                 3.043
 SMILES CC(C)(C)[C@@]1(C#N)[C@@H](S)[C@H](Bc2cc3c(cc2I)OC3)C1(F)F
 SMILES IDX 10 1 8 2 5 3 21 4 22 5 23 6 11 7 12 9 13 10 17 11 14 12
 SMILES IDX 16 13 18 14 15 15 20 16 19 17 9 18 6 20 7 21 2 22 1 23 3 24
 SMILES IDX 4 25
 H PARENT 11 8 9 19
 Flexibility Score: inf

>  <TORSDO>
F 5

$$$$
VN06
 OpenBabel07202315313D

 27 27  0  0  1  0  0  0  0  0999 V2000
    2.6140    7.3780   19.0020 I   0  0  0  0  0  0  0  0  0  0  0  0
    4.1880    7.9950   18.8220 H   0  0  0  0  0  0  0  0  0  0  0  0
    2.7180    5.5380   20.0090 C   0  0  0  0  0  2  0  0  0  0  0  0
    3.8070    4.5790   19.5110 C   0  0  1  0  0  3  0  0  0  0  0  0
    1.7180    4.5500   19.4340 C   0  0  0  0  0  0  0  0  0  0  0  0
    2.8020    3.5060   19.5840 C   0  0  2  0  0  0  0  0  0  0  0  0
    1.4670    4.8450   18.1300 F   0  0  0  0  0  0  0  0  0  0  0  0
    0.6130    4.3440   20.2390 F   0  0  0  0  0  0  0  0  0  0  0  0
    4.3950    5.0340   18.1560 C   0  0  0  0  0  3  0  0  0  0  0  0
    4.4170    4.2500   17.2470 H   0  0  0  0  0  0  0  0  0  0  0  0
    4.5060    6.1660   17.8550 H   0  0  0  0  0  0  0  0  0  0  0  0
    2.7280    2.9690   20.9690 C   0  0  0  0  0  0  0  0  0  0  0  0
    2.6550    2.5620   22.0500 N   0  0  0  0  0  0  0  0  0  0  0  0
    2.7940    2.3930   18.6160 C   0  0  0  0  0  0  0  0  0  0  0  0
    3.9000    1.4020   18.9570 C   0  0  0  0  0  1  0  0  0  0  0  0
    1.4900    1.6100   18.8720 C   0  0  0  0  0  1  0  0  0  0  0  0
    2.7900    2.7410   17.1740 C   0  0  0  0  0  1  0  0  0  0  0  0
    1.5130    8.7110   20.1710 C   0  0  0  0  0  3  0  0  0  0  0  0
    1.1690    8.4310   21.4650 C   0  0  0  0  0  3  0  0  0  0  0  0
    1.1120    9.9150   19.6440 C   0  0  0  0  0  0  0  0  0  0  0  0
    0.4370    9.3100   22.2500 C   0  0  0  0  0  0  0  0  0  0  0  0
    0.3720   10.8440   20.3840 C   0  0  0  0  0  3  0  0  0  0  0  0
    0.0530   10.5090   21.6850 C   0  0  0  0  0  0  0  0  0  0  0  0
   -0.2490    9.7740   23.4670 C   0  0  0  0  0  2  0  0  0  0  0  0
   -0.6140   10.9920   22.8230 O   0  0  0  0  0  0  0  0  0  0  0  0
    1.5030   10.3960   17.9600 S   0  0  0  0  0  0  0  0  0  0  0  0
    1.8160   11.7510   17.9780 H   0  0  0  0  0  0  0  0  0  0  0  0
  2  1  1  0  0  0  0
  4  9  1  6  0  0  0
  4  6  1  0  0  0  0
  4  3  1  0  0  0  0
  5  6  1  0  0  0  0
  5  3  1  0  0  0  0
  5  8  1  0  0  0  0
  6 12  1  1  0  0  0
  7  5  1  0  0  0  0
 10  9  1  0  0  0  0
 11  9  1  0  0  0  0
 12 13  3  0  0  0  0
 14 16  1  0  0  0  0
 14 15  1  0  0  0  0
 14  6  1  0  0  0  0
 17 14  1  0  0  0  0
 18 19  1  0  0  0  0
 19 21  2  0  0  0  0
 20 18  2  0  0  0  0
 20 22  1  0  0  0  0
 21 24  1  0  0  0  0
 22 23  2  0  0  0  0
 23 21  1  0  0  0  0
 23 25  1  0  0  0  0
 25 24  1  0  0  0  0
 26 27  1  0  0  0  0
 26 20  1  0  0  0  0
M  END
>  <MODEL>
1

>  <REMARK>
 VINA RESULT:    -4.540      0.000      0.000
 INTER + INTRA:          -2.934
 INTER:                  -5.867
 INTRA:                   2.932
 UNBOUND:                 2.932
 SMILES B[C@H]1[C@@H]([IH]c2cc3c(cc2S)OC3)C(F)(F)[C@@]1(C#N)C(C)(C)C
 SMILES IDX 4 1 3 3 2 4 14 5 17 6 15 7 16 8 1 9 18 12 19 13 20 14 21 15
 SMILES IDX 22 16 23 17 5 18 6 19 10 20 7 21 9 22 8 23 13 24 12 25 11 26
 H PARENT 4 2 1 10 1 11 11 27
 Flexibility Score: inf

>  <TORSDO>
F 6

$$$$
VN07
 OpenBabel07202315313D

 25 27  0  0  1  0  0  0  0  0999 V2000
    4.6780    5.4950   17.0920 C   0  0  0  0  0  3  0  0  0  0  0  0
    4.3370    6.6290   17.2280 H   0  0  0  0  0  0  0  0  0  0  0  0
    4.3910    4.3560   18.1040 C   0  0  1  0  0  3  0  0  0  0  0  0
    3.8380    4.8250   19.4640 C   0  0  2  0  0  3  0  0  0  0  0  0
    3.0130    3.6850   17.9590 C   0  0  0  0  0  0  0  0  0  0  0  0
    3.0960    3.5110   19.4370 C   0  0  1  0  0  0  0  0  0  0  0  0
    2.6700    6.5550   19.1540 I   0  0  0  0  0  0  0  0  0  0  0  0
    2.1010    4.5520   17.4500 F   0  0  0  0  0  0  0  0  0  0  0  0
    3.0710    2.4730   17.2960 F   0  0  0  0  0  0  0  0  0  0  0  0
    4.0760    2.4300   19.7270 C   0  0  0  0  0  0  0  0  0  0  0  0
    4.8530    1.6000   19.9510 N   0  0  0  0  0  0  0  0  0  0  0  0
    1.9110    3.3390   20.2550 C   0  0  0  0  0  0  0  0  0  0  0  0
    2.3430    2.7080   21.5900 C   0  0  0  0  0  1  0  0  0  0  0  0
    1.0520    4.4890   20.5710 C   0  0  0  0  0  1  0  0  0  0  0  0
    1.0300    2.2670   19.5970 C   0  0  0  0  0  1  0  0  0  0  0  0
    5.6060    5.2030   15.8770 C   0  0  0  0  0  0  0  0  0  0  0  0
    5.1470    4.4210   14.8380 C   0  0  0  0  0  3  0  0  0  0  0  0
    6.8890    5.7080   15.8070 C   0  0  0  0  0  0  0  0  0  0  0  0
    5.9590    4.1430   13.7350 C   0  0  0  0  0  0  0  0  0  0  0  0
    7.7080    5.4460   14.7260 C   0  0  0  0  0  3  0  0  0  0  0  0
    7.2340    4.6530   13.6800 C   0  0  0  0  0  0  0  0  0  0  0  0
    6.1600    3.4890   12.4260 C   0  0  0  0  0  2  0  0  0  0  0  0
    7.4330    4.0530   12.4640 O   0  0  0  0  0  0  0  0  0  0  0  0
    7.4440    6.7150   17.1700 S   0  0  0  0  0  0  0  0  0  0  0  0
    7.3190    8.0830   16.8810 H   0  0  0  0  0  0  0  0  0  0  0  0
  1  2  1  0  0  0  0
  3  1  1  6  0  0  0
  3  4  1  0  0  0  0
  4  7  1  6  0  0  0
  5  3  1  0  0  0  0
  5  6  1  0  0  0  0
  6  4  1  0  0  0  0
  6 10  1  1  0  0  0
  6 12  1  0  0  0  0
  8  5  1  0  0  0  0
  9  5  1  0  0  0  0
 10 11  3  0  0  0  0
 12 14  1  0  0  0  0
 12 13  1  0  0  0  0
 15 12  1  0  0  0  0
 16  1  1  0  0  0  0
 17 16  2  0  0  0  0
 18 16  1  0  0  0  0
 18 24  1  0  0  0  0
 19 17  1  0  0  0  0
 20 18  2  0  0  0  0
 21 19  2  0  0  0  0
 21 20  1  0  0  0  0
 22 23  1  0  0  0  0
 22 19  1  0  0  0  0
 23 21  1  0  0  0  0
 25 24  1  0  0  0  0
M  END
>  <MODEL>
1

>  <REMARK>
 VINA RESULT:    -4.426      0.000      0.000
 INTER + INTRA:          -3.266
 INTER:                  -5.591
 INTRA:                   2.325
 UNBOUND:                 2.325
 SMILES CC(C)(C)[C@]1(C#N)[C@H](I)[C@H](Bc2cc3c(cc2S)OC3)C1(F)F
 SMILES IDX 11 1 10 3 8 4 21 5 5 6 9 7 22 8 23 9 6 10 7 11 2 12 1 13
 SMILES IDX 3 14 4 15 12 16 13 17 17 18 14 19 16 20 15 21 20 22 19 23
 SMILES IDX 18 24
 H PARENT 11 2 18 25
 Flexibility Score: inf

>  <TORSDO>
F 5

$$$$
VN08
 OpenBabel07202315313D

 25 27  0  0  1  0  0  0  0  0999 V2000
   -2.4540   12.8410   21.0990 C   0  0  1  0  0  3  0  0  0  0  0  0
   -1.8710   13.0020   22.5140 C   0  0  1  0  0  3  0  0  0  0  0  0
   -3.1860   13.4990   23.0000 C   0  0  1  0  0  0  0  0  0  0  0  0
   -3.7160   13.4480   21.5860 C   0  0  0  0  0  0  0  0  0  0  0  0
   -4.8150   12.5800   21.4760 F   0  0  0  0  0  0  0  0  0  0  0  0
   -4.0390   14.6310   21.0260 F   0  0  0  0  0  0  0  0  0  0  0  0
   -1.4080   13.7080   19.9440 S   0  0  0  0  0  0  0  0  0  0  0  0
   -0.1260   12.7310   19.2370 C   0  0  0  0  0  0  0  0  0  0  0  0
   -0.3410   11.3610   19.0980 C   0  0  0  0  0  3  0  0  0  0  0  0
    1.0620   13.3110   18.8710 C   0  0  0  0  0  0  0  0  0  0  0  0
    0.6880   10.5680   18.5680 C   0  0  0  0  0  0  0  0  0  0  0  0
    2.0420   12.4890   18.3550 C   0  0  0  0  0  3  0  0  0  0  0  0
    1.5170   15.3510   19.1120 I   0  0  0  0  0  0  0  0  0  0  0  0
    1.8810   11.1160   18.1930 C   0  0  0  0  0  0  0  0  0  0  0  0
    1.1980    9.2540   18.1560 C   0  0  0  0  0  2  0  0  0  0  0  0
    2.3740    9.8870   17.8000 O   0  0  0  0  0  0  0  0  0  0  0  0
   -1.4320   11.5770   23.0490 C   0  0  0  0  0  3  0  0  0  0  0  0
   -2.2510   10.7210   23.0230 H   0  0  0  0  0  0  0  0  0  0  0  0
   -0.3160   11.2490   22.8520 H   0  0  0  0  0  0  0  0  0  0  0  0
   -3.8850   12.5360   23.8510 C   0  0  0  0  0  0  0  0  0  0  0  0
   -4.4370   11.7750   24.5230 N   0  0  0  0  0  0  0  0  0  0  0  0
   -3.2260   14.8530   23.6520 C   0  0  0  0  0  0  0  0  0  0  0  0
   -2.4710   15.9130   22.9320 C   0  0  0  0  0  1  0  0  0  0  0  0
   -4.6990   15.2790   23.6720 C   0  0  0  0  0  1  0  0  0  0  0  0
   -2.6900   14.7450   25.0640 C   0  0  0  0  0  1  0  0  0  0  0  0
  1  7  1  6  0  0  0
  1  4  1  0  0  0  0
  1  2  1  0  0  0  0
  2  3  1  0  0  0  0
  2 17  1  1  0  0  0
  3 22  1  0  0  0  0
  3 20  1  1  0  0  0
  4  3  1  0  0  0  0
  5  4  1  0  0  0  0
  6  4  1  0  0  0  0
  8  7  1  0  0  0  0
  9  8  1  0  0  0  0
 10 13  1  0  0  0  0
 10  8  2  0  0  0  0
 11  9  2  0  0  0  0
 12 10  1  0  0  0  0
 14 12  2  0  0  0  0
 14 11  1  0  0  0  0
 15 11  1  0  0  0  0
 16 15  1  0  0  0  0
 16 14  1  0  0  0  0
 18 17  1  0  0  0  0
 19 17  1  0  0  0  0
 20 21  3  0  0  0  0
 22 24  1  0  0  0  0
 22 25  1  0  0  0  0
 23 22  1  0  0  0  0
M  END
>  <MODEL>
1

>  <REMARK>
 VINA RESULT:    -4.082      0.000      0.000
 INTER + INTRA:          -2.674
 INTER:                  -5.155
 INTRA:                   2.482
 UNBOUND:                 2.482
 SMILES B[C@H]1[C@H](Sc2cc3c(cc2I)OC3)C(F)(F)[C@]1(C#N)C(C)(C)C
 SMILES IDX 3 1 2 2 17 3 14 4 15 5 16 6 4 7 5 8 6 9 10 10 7 11 9 12
 SMILES IDX 11 13 8 14 13 15 12 16 1 17 18 20 19 21 20 22 21 23 22 24
 SMILES IDX 23 25
 H PARENT 1 18 1 19
 Flexibility Score: inf

>  <TORSDO>
F 5

$$$$
VN09
 OpenBabel07202315313D

 23 25  0  0  1  0  0  0  0  0999 V2000
    0.8630    9.7890   21.9820 I   0  0  0  0  0  0  0  0  0  0  0  0
    1.5270    8.5270   20.4140 C   0  0  0  0  0  0  0  0  0  0  0  0
    1.6500    8.9630   19.1280 C   0  0  0  0  0  0  0  0  0  0  0  0
    2.0930    8.0940   18.1240 C   0  0  0  0  0  3  0  0  0  0  0  0
    2.4140    6.7870   18.4050 C   0  0  0  0  0  0  0  0  0  0  0  0
    2.2940    6.3380   19.7040 C   0  0  0  0  0  0  0  0  0  0  0  0
    1.8620    7.1930   20.6740 C   0  0  0  0  0  3  0  0  0  0  0  0
    2.6960    4.9090   19.7460 C   0  0  0  0  0  2  0  0  0  0  0  0
    3.6380    4.8380   18.5610 C   0  0  1  0  0  0  0  0  0  0  0  0
    2.9000    5.6720   17.5520 C   0  0  0  0  0  2  0  0  0  0  0  0
    1.3150   10.3150   18.8430 N   0  0  0  0  0  0  0  0  0  0  0  0
    0.1530   11.1670   18.8300 C   0  0  1  0  0  3  0  0  0  0  0  0
    2.1480   11.4990   18.3970 C   0  0  0  0  0  3  0  0  0  0  0  0
    0.8400   12.0150   17.9660 O   0  0  0  0  0  0  0  0  0  0  0  0
    3.2940   11.7290   18.1710 H   0  0  0  0  0  0  0  0  0  0  0  0
   -1.3180   10.3880   18.1590 S   0  0  0  0  0  0  0  0  0  0  0  0
   -1.6570   10.9620   16.9110 H   0  0  0  0  0  0  0  0  0  0  0  0
    4.8690    5.5520   18.8880 C   0  0  0  0  0  0  0  0  0  0  0  0
    5.8450    6.1100   19.1400 N   0  0  0  0  0  0  0  0  0  0  0  0
    3.8970    3.4270   18.1540 C   0  0  0  0  0  0  0  0  0  0  0  0
    2.5800    2.8950   17.5740 C   0  0  0  0  0  1  0  0  0  0  0  0
    4.2540    2.5440   19.3030 C   0  0  0  0  0  1  0  0  0  0  0  0
    4.9200    3.2950   17.0660 C   0  0  0  0  0  1  0  0  0  0  0  0
  2  7  1  0  0  0  0
  2  1  1  0  0  0  0
  3  2  2  0  0  0  0
  4  5  2  0  0  0  0
  4  3  1  0  0  0  0
  5  6  1  0  0  0  0
  6  8  1  0  0  0  0
  6  7  2  0  0  0  0
  9 18  1  1  0  0  0
  9  8  1  0  0  0  0
 10  5  1  0  0  0  0
 10  9  1  0  0  0  0
 11  3  1  0  0  0  0
 12 16  1  6  0  0  0
 12 11  1  0  0  0  0
 13 11  1  0  0  0  0
 14 13  1  0  0  0  0
 14 12  1  0  0  0  0
 15 13  1  0  0  0  0
 17 16  1  0  0  0  0
 18 19  3  0  0  0  0
 20  9  1  0  0  0  0
 20 22  1  0  0  0  0
 21 20  1  0  0  0  0
 23 20  1  0  0  0  0
M  END
>  <MODEL>
1

>  <REMARK>
 VINA RESULT:    -3.498      0.000      0.000
 INTER + INTRA:          -4.835
 INTER:                  -4.214
 INTRA:                  -0.621
 UNBOUND:                -0.621
 SMILES CC(C)(C)[C@]1(C#N)Cc2cc(I)c(N3BO[C@H]3S)cc2C1
 SMILES IDX 12 1 11 2 13 3 19 4 20 5 9 6 10 7 8 8 5 9 21 10 14 11 17 12
 SMILES IDX 15 13 16 14 18 16 6 18 7 19 2 20 1 21 3 22 4 23
 H PARENT 15 15 18 17
 Flexibility Score: inf

>  <TORSDO>
F 4

$$$$
VN10
 OpenBabel07202315313D

 26 28  0  0  1  0  0  0  0  0999 V2000
   -2.9520   12.2740   21.5170 C   0  0  2  0  0  3  0  0  0  0  0  0
   -4.0400   13.3150   21.7640 C   0  0  1  0  0  3  0  0  0  0  0  0
   -3.5410   13.4970   23.1520 C   0  0  2  0  0  0  0  0  0  0  0  0
   -2.3380   12.6810   22.8410 C   0  0  0  0  0  0  0  0  0  0  0  0
   -1.1450   13.3380   22.7030 F   0  0  0  0  0  0  0  0  0  0  0  0
   -2.1630   11.5720   23.6770 F   0  0  0  0  0  0  0  0  0  0  0  0
   -2.0700   12.6330   20.2450 C   0  0  0  0  0  3  0  0  0  0  0  0
   -1.0920   13.2920   20.4560 H   0  0  0  0  0  0  0  0  0  0  0  0
   -2.0230   11.7240   18.9860 C   0  0  0  0  0  0  0  0  0  0  0  0
   -2.9510   11.9040   17.9930 C   0  0  0  0  0  3  0  0  0  0  0  0
   -1.0790   10.7320   18.8210 C   0  0  0  0  0  0  0  0  0  0  0  0
   -2.9790   11.1380   16.8400 C   0  0  0  0  0  0  0  0  0  0  0  0
   -1.0790    9.9480   17.6780 C   0  0  0  0  0  3  0  0  0  0  0  0
    0.3790   10.3930   20.2980 I   0  0  0  0  0  0  0  0  0  0  0  0
   -2.0430   10.1590   16.6810 C   0  0  0  0  0  0  0  0  0  0  0  0
   -3.5800   10.8000   15.5350 C   0  0  0  0  0  2  0  0  0  0  0  0
   -2.5920    9.8320   15.4650 O   0  0  0  0  0  0  0  0  0  0  0  0
   -4.0050   14.4450   20.8850 N   0  0  0  0  0  0  0  0  0  0  0  0
   -4.7040   15.1830   21.1180 H   0  0  0  0  0  0  0  0  0  0  0  0
   -3.0790   14.9230   20.8390 H   0  0  0  0  0  0  0  0  0  0  0  0
   -4.4150   12.7590   24.0970 C   0  0  0  0  0  0  0  0  0  0  0  0
   -5.1030   12.1710   24.8180 N   0  0  0  0  0  0  0  0  0  0  0  0
   -3.3370   14.8840   23.6520 C   0  0  0  0  0  0  0  0  0  0  0  0
   -2.3560   15.7040   22.8950 C   0  0  0  0  0  1  0  0  0  0  0  0
   -4.7100   15.5570   23.7010 C   0  0  0  0  0  1  0  0  0  0  0  0
   -2.8740   14.7970   25.1040 C   0  0  0  0  0  1  0  0  0  0  0  0
  1  7  1  6  0  0  0
  1  2  1  0  0  0  0
  1  4  1  0  0  0  0
  2 18  1  6  0  0  0
  2  3  1  0  0  0  0
  3 23  1  0  0  0  0
  3 21  1  1  0  0  0
  4  3  1  0  0  0  0
  4  6  1  0  0  0  0
  5  4  1  0  0  0  0
  7  8  1  0  0  0  0
  9  7  1  0  0  0  0
 10  9  2  0  0  0  0
 11  9  1  0  0  0  0
 11 14  1  0  0  0  0
 12 10  1  0  0  0  0
 13 11  2  0  0  0  0
 15 12  2  0  0  0  0
 15 13  1  0  0  0  0
 16 12  1  0  0  0  0
 17 16  1  0  0  0  0
 17 15  1  0  0  0  0
 18 19  1  0  0  0  0
 20 18  1  0  0  0  0
 21 22  3  0  0  0  0
 23 25  1  0  0  0  0
 23 26  1  0  0  0  0
 24 23  1  0  0  0  0
M  END
>  <MODEL>
1

>  <REMARK>
 VINA RESULT:    -4.425      0.000      0.000
 INTER + INTRA:          -3.005
 INTER:                  -5.589
 INTRA:                   2.585
 UNBOUND:                 2.585
 SMILES CC(C)(C)[C@@]1(C#N)[C@@H](N)[C@@H](Bc2cc3c(cc2I)OC3)C1(F)F
 SMILES IDX 10 1 8 2 5 3 21 4 22 5 23 6 11 7 12 9 13 10 17 11 14 12
 SMILES IDX 16 13 18 14 15 15 20 16 19 17 9 18 6 21 7 22 2 23 1 24 3 25
 SMILES IDX 4 26
 H PARENT 11 8 9 19 9 20
 Flexibility Score: inf

>  <TORSDO>
F 5

$$$$
